MOL0212
  -OEChem-07032400353D

 36 38  0     0  0  0  0  0  0999 V2000
   -3.0146   15.2057    1.3240 C   0  0  0  0  0  0  0  0  0  0  0  0
   -0.7776   15.0984    0.8667 C   0  0  0  0  0  0  0  0  0  0  0  0
   -3.2876   15.1315   -0.0181 C   0  0  0  0  0  0  0  0  0  0  0  0
   -2.2102   15.0397   -0.8773 C   0  0  0  0  0  0  0  0  0  0  0  0
   -1.8364   14.8697   -3.3171 C   0  0  0  0  0  0  0  0  0  0  0  0
   -4.5943   15.1311   -0.7275 C   0  0  0  0  0  0  0  0  0  0  0  0
    2.8702   13.3067   -2.8375 C   0  0  0  0  0  0  0  0  0  0  0  0
    1.5977   12.5584   -3.2237 C   0  0  0  0  0  0  0  0  0  0  0  0
    2.5847   14.7616   -2.4767 C   0  0  0  0  0  0  0  0  0  0  0  0
    0.8422   13.2733   -4.3429 C   0  0  0  0  0  0  0  0  0  0  0  0
    1.8193   15.4811   -3.5869 C   0  0  0  0  0  0  0  0  0  0  0  0
   -4.1515   15.0289   -2.1936 C   0  0  0  0  0  0  0  0  0  0  0  0
    0.5475   14.7392   -4.0118 C   0  0  0  0  0  0  0  0  0  0  0  0
   -1.7524   15.1910    1.8013 N   0  0  0  0  0  0  0  0  0  0  0  0
   -0.9301   15.0199   -0.4720 N   0  0  0  0  0  0  0  0  0  0  0  0
   -2.6740   14.9728   -2.2073 N   0  0  0  0  0  0  0  0  0  0  0  0
   -0.4799   14.8412   -3.0011 N   0  0  0  0  0  0  0  0  0  0  0  0
   -2.2427   14.8096   -4.4806 O   0  0  0  0  0  0  0  0  0  0  0  0
   -3.7992   15.2795    2.0676 H   0  0  0  0  0  0  0  0  0  0  0  0
    0.2408   15.0857    1.2364 H   0  0  0  0  0  0  0  0  0  0  0  0
   -5.2002   14.2681   -0.4363 H   0  0  0  0  0  0  0  0  0  0  0  0
   -5.1431   16.0595   -0.5437 H   0  0  0  0  0  0  0  0  0  0  0  0
    3.3430   12.8053   -1.9830 H   0  0  0  0  0  0  0  0  0  0  0  0
    3.5874   13.2665   -3.6661 H   0  0  0  0  0  0  0  0  0  0  0  0
    1.8556   11.5429   -3.5488 H   0  0  0  0  0  0  0  0  0  0  0  0
    0.9484   12.4579   -2.3468 H   0  0  0  0  0  0  0  0  0  0  0  0
    2.0085   14.8042   -1.5451 H   0  0  0  0  0  0  0  0  0  0  0  0
    3.5318   15.2839   -2.2900 H   0  0  0  0  0  0  0  0  0  0  0  0
    1.4315   13.2080   -5.2718 H   0  0  0  0  0  0  0  0  0  0  0  0
   -0.1021   12.7367   -4.5363 H   0  0  0  0  0  0  0  0  0  0  0  0
    1.5603   16.4972   -3.2413 H   0  0  0  0  0  0  0  0  0  0  0  0
    2.4864   15.6120   -4.4554 H   0  0  0  0  0  0  0  0  0  0  0  0
   -4.5471   14.1260   -2.6725 H   0  0  0  0  0  0  0  0  0  0  0  0
   -4.4797   15.8978   -2.7752 H   0  0  0  0  0  0  0  0  0  0  0  0
    0.1348   15.2279   -4.9086 H   0  0  0  0  0  0  0  0  0  0  0  0
   -0.2034   14.8940   -2.0253 H   0  0  0  0  0  0  0  0  0  0  0  0
  1  3  1  0  0  0  0
  1 14  2  0  0  0  0
  2 14  1  0  0  0  0
  2 15  2  0  0  0  0
  3  4  2  0  0  0  0
  3  6  1  0  0  0  0
  4 15  1  0  0  0  0
  4 16  1  0  0  0  0
  5 16  1  0  0  0  0
  5 17  1  0  0  0  0
  5 18  2  0  0  0  0
  6 12  1  0  0  0  0
  7  8  1  0  0  0  0
  7  9  1  0  0  0  0
  8 10  1  0  0  0  0
  9 11  1  0  0  0  0
 10 13  1  0  0  0  0
 11 13  1  0  0  0  0
 12 16  1  0  0  0  0
 13 17  1  0  0  0  0
  1 19  1  0  0  0  0
  2 20  1  0  0  0  0
  6 21  1  0  0  0  0
  6 22  1  0  0  0  0
  7 23  1  0  0  0  0
  7 24  1  0  0  0  0
  8 25  1  0  0  0  0
  8 26  1  0  0  0  0
  9 27  1  0  0  0  0
  9 28  1  0  0  0  0
 10 29  1  0  0  0  0
 10 30  1  0  0  0  0
 11 31  1  0  0  0  0
 11 32  1  0  0  0  0
 12 33  1  0  0  0  0
 12 34  1  0  0  0  0
 13 35  1  0  0  0  0
 17 36  1  0  0  0  0
M  END
> <HYBRID receptor title>
5S18(A) > WOY(A-201)

> <HYBRID receptor filename>
data/docking/5s18.oedu

> <HYBRID Chemgauss4 score>
-8.848125

> <HYBRID receptor title>
5S18(A) > WOY(A-201)

> <HYBRID receptor filename>
data/docking/5s18.oedu

> <Dock Type>
Hybrid

$$$$
MOL0205
  -OEChem-07032400353D

 26 28  0     0  0  0  0  0  0999 V2000
   -0.9636   12.9038   -4.1414 C   0  0  0  0  0  0  0  0  0  0  0  0
   -1.1325   13.1684   -2.7823 C   0  0  0  0  0  0  0  0  0  0  0  0
   -0.1616   13.7385   -4.9195 C   0  0  0  0  0  0  0  0  0  0  0  0
    0.3028   15.1020   -2.9794 C   0  0  0  0  0  0  0  0  0  0  0  0
    0.2924   14.8055    1.2576 C   0  0  0  0  0  0  0  0  0  0  0  0
   -0.4992   14.2672   -2.2013 C   0  0  0  0  0  0  0  0  0  0  0  0
   -1.9002   14.7869   -0.2374 C   0  0  0  0  0  0  0  0  0  0  0  0
    0.4717   14.8374   -4.3384 C   0  0  0  0  0  0  0  0  0  0  0  0
   -0.6741   14.5401   -0.7962 C   0  0  0  0  0  0  0  0  0  0  0  0
   -1.9528   15.0491    1.1213 C   0  0  0  0  0  0  0  0  0  0  0  0
   -3.2541   14.8587   -0.8486 C   0  0  0  0  0  0  0  0  0  0  0  0
   -4.1500   15.0271    0.3982 C   0  0  0  0  0  0  0  0  0  0  0  0
    0.4564   14.5400   -0.0604 N   0  0  0  0  0  0  0  0  0  0  0  0
   -0.8629   15.0672    1.9060 N   0  0  0  0  0  0  0  0  0  0  0  0
   -3.2717   15.2883    1.5259 N   0  0  0  0  0  0  0  0  0  0  0  0
    1.2420   15.6382   -5.0862 F   0  0  0  0  0  0  0  0  0  0  0  0
   -1.4563   12.0484   -4.5941 H   0  0  0  0  0  0  0  0  0  0  0  0
   -1.7601   12.5081   -2.1883 H   0  0  0  0  0  0  0  0  0  0  0  0
   -0.0303   13.5328   -5.9776 H   0  0  0  0  0  0  0  0  0  0  0  0
    0.8031   15.9625   -2.5419 H   0  0  0  0  0  0  0  0  0  0  0  0
    1.1929   14.8093    1.8602 H   0  0  0  0  0  0  0  0  0  0  0  0
   -3.3340   15.7295   -1.5071 H   0  0  0  0  0  0  0  0  0  0  0  0
   -3.5069   13.9448   -1.3941 H   0  0  0  0  0  0  0  0  0  0  0  0
   -4.8685   15.8420    0.2615 H   0  0  0  0  0  0  0  0  0  0  0  0
   -4.7177   14.1073    0.5822 H   0  0  0  0  0  0  0  0  0  0  0  0
   -3.5586   15.4570    2.4773 H   0  0  0  0  0  0  0  0  0  0  0  0
  1  2  1  0  0  0  0
  1  3  2  0  0  0  0
  2  6  2  0  0  0  0
  3  8  1  0  0  0  0
  4  6  1  0  0  0  0
  4  8  2  0  0  0  0
  5 13  2  0  0  0  0
  5 14  1  0  0  0  0
  6  9  1  0  0  0  0
  7  9  2  0  0  0  0
  7 10  1  0  0  0  0
  7 11  1  0  0  0  0
  8 16  1  0  0  0  0
  9 13  1  0  0  0  0
 10 14  2  0  0  0  0
 10 15  1  0  0  0  0
 11 12  1  0  0  0  0
 12 15  1  0  0  0  0
  1 17  1  0  0  0  0
  2 18  1  0  0  0  0
  3 19  1  0  0  0  0
  4 20  1  0  0  0  0
  5 21  1  0  0  0  0
 11 22  1  0  0  0  0
 11 23  1  0  0  0  0
 12 24  1  0  0  0  0
 12 25  1  0  0  0  0
 15 26  1  0  0  0  0
M  END
> <HYBRID receptor title>
5S18(A) > WOY(A-201)

> <HYBRID receptor filename>
data/docking/5s18.oedu

> <HYBRID Chemgauss4 score>
-8.766920

> <HYBRID receptor title>
5S18(A) > WOY(A-201)

> <HYBRID receptor filename>
data/docking/5s18.oedu

> <Dock Type>
Hybrid

$$$$
MOL0123
  -OEChem-07032400353D

 30 32  0     0  0  0  0  0  0999 V2000
   -0.5667   11.6421   -6.2322 C   0  0  0  0  0  0  0  0  0  0  0  0
   -1.9442   11.7334   -6.0327 C   0  0  0  0  0  0  0  0  0  0  0  0
    0.3115   12.1145   -5.2569 C   0  0  0  0  0  0  0  0  0  0  0  0
   -2.4435   12.2967   -4.8582 C   0  0  0  0  0  0  0  0  0  0  0  0
   -0.1878   12.6778   -4.0824 C   0  0  0  0  0  0  0  0  0  0  0  0
    0.0982   14.5126    1.1450 C   0  0  0  0  0  0  0  0  0  0  0  0
   -2.2174   14.9240   -0.0842 C   0  0  0  0  0  0  0  0  0  0  0  0
   -1.5653   12.7692   -3.8829 C   0  0  0  0  0  0  0  0  0  0  0  0
   -2.0824   15.0997    1.2826 C   0  0  0  0  0  0  0  0  0  0  0  0
   -1.1123   14.5334   -0.7933 C   0  0  0  0  0  0  0  0  0  0  0  0
   -3.6009   15.2394   -0.5298 C   0  0  0  0  0  0  0  0  0  0  0  0
   -4.3205   15.4569    0.8195 C   0  0  0  0  0  0  0  0  0  0  0  0
   -2.1018   13.3751   -2.6198 C   0  0  0  0  0  0  0  0  0  0  0  0
   -0.9255   14.9011    1.9353 N   0  0  0  0  0  0  0  0  0  0  0  0
    0.0764   14.3140   -0.1947 N   0  0  0  0  0  0  0  0  0  0  0  0
   -3.2963   15.5071    1.8490 N   0  0  0  0  0  0  0  0  0  0  0  0
   -1.1810   14.3535   -2.1457 O   0  0  0  0  0  0  0  0  0  0  0  0
   -0.1780   11.2036   -7.1465 H   0  0  0  0  0  0  0  0  0  0  0  0
   -2.6282   11.3652   -6.7918 H   0  0  0  0  0  0  0  0  0  0  0  0
    1.3840   12.0436   -5.4121 H   0  0  0  0  0  0  0  0  0  0  0  0
   -3.5184   12.3637   -4.7117 H   0  0  0  0  0  0  0  0  0  0  0  0
    0.5043   13.0422   -3.3279 H   0  0  0  0  0  0  0  0  0  0  0  0
    1.0476   14.3408    1.6383 H   0  0  0  0  0  0  0  0  0  0  0  0
   -3.6117   16.1532   -1.1322 H   0  0  0  0  0  0  0  0  0  0  0  0
   -4.0478   14.4112   -1.0873 H   0  0  0  0  0  0  0  0  0  0  0  0
   -4.9120   16.3783    0.8066 H   0  0  0  0  0  0  0  0  0  0  0  0
   -5.0031   14.6234    1.0222 H   0  0  0  0  0  0  0  0  0  0  0  0
   -3.0715   13.8520   -2.7977 H   0  0  0  0  0  0  0  0  0  0  0  0
   -2.2401   12.6093   -1.8483 H   0  0  0  0  0  0  0  0  0  0  0  0
   -3.4500   15.6528    2.8345 H   0  0  0  0  0  0  0  0  0  0  0  0
  1  2  1  0  0  0  0
  1  3  2  0  0  0  0
  2  4  2  0  0  0  0
  3  5  1  0  0  0  0
  4  8  1  0  0  0  0
  5  8  2  0  0  0  0
  6 14  1  0  0  0  0
  6 15  2  0  0  0  0
  7  9  1  0  0  0  0
  7 10  2  0  0  0  0
  7 11  1  0  0  0  0
  8 13  1  0  0  0  0
  9 14  2  0  0  0  0
  9 16  1  0  0  0  0
 10 15  1  0  0  0  0
 10 17  1  0  0  0  0
 11 12  1  0  0  0  0
 12 16  1  0  0  0  0
 13 17  1  0  0  0  0
  1 18  1  0  0  0  0
  2 19  1  0  0  0  0
  3 20  1  0  0  0  0
  4 21  1  0  0  0  0
  5 22  1  0  0  0  0
  6 23  1  0  0  0  0
 11 24  1  0  0  0  0
 11 25  1  0  0  0  0
 12 26  1  0  0  0  0
 12 27  1  0  0  0  0
 13 28  1  0  0  0  0
 13 29  1  0  0  0  0
 16 30  1  0  0  0  0
M  END
> <HYBRID receptor title>
5S18(A) > WOY(A-201)

> <HYBRID receptor filename>
data/docking/5s18.oedu

> <HYBRID Chemgauss4 score>
-8.602248

> <HYBRID receptor title>
5S18(A) > WOY(A-201)

> <HYBRID receptor filename>
data/docking/5s18.oedu

> <Dock Type>
Hybrid

$$$$
MOL0140
  -OEChem-07032400353D

 34 36  0     0  0  0  0  0  0999 V2000
   -2.2187   10.1736   -4.5933 C   0  0  0  0  0  0  0  0  0  0  0  0
   -2.2119   10.4670   -3.2296 C   0  0  0  0  0  0  0  0  0  0  0  0
   -1.2708   10.7541   -5.4358 C   0  0  0  0  0  0  0  0  0  0  0  0
   -1.2572   11.3404   -2.7085 C   0  0  0  0  0  0  0  0  0  0  0  0
   -0.3161   11.6276   -4.9146 C   0  0  0  0  0  0  0  0  0  0  0  0
    0.2896   14.7512    1.1843 C   0  0  0  0  0  0  0  0  0  0  0  0
   -2.0261   14.8591   -0.1073 C   0  0  0  0  0  0  0  0  0  0  0  0
   -0.3092   11.9210   -3.5510 C   0  0  0  0  0  0  0  0  0  0  0  0
   -1.9574   15.0015    1.2683 C   0  0  0  0  0  0  0  0  0  0  0  0
   -0.8554   14.6644   -0.7915 C   0  0  0  0  0  0  0  0  0  0  0  0
   -3.4281   14.9815   -0.5882 C   0  0  0  0  0  0  0  0  0  0  0  0
   -4.2098   15.0386    0.7427 C   0  0  0  0  0  0  0  0  0  0  0  0
    0.7235   12.8658   -2.9877 C   0  0  0  0  0  0  0  0  0  0  0  0
    0.2659   14.3219   -2.9937 C   0  0  0  0  0  0  0  0  0  0  0  0
   -0.8026   14.9530    1.9524 N   0  0  0  0  0  0  0  0  0  0  0  0
    0.3355   14.6021   -0.1611 N   0  0  0  0  0  0  0  0  0  0  0  0
   -3.2341   15.2020    1.8070 N   0  0  0  0  0  0  0  0  0  0  0  0
   -0.9019   14.5277   -2.1967 N   0  0  0  0  0  0  0  0  0  0  0  0
   -2.9620    9.4936   -4.9991 H   0  0  0  0  0  0  0  0  0  0  0  0
   -2.9498   10.0147   -2.5735 H   0  0  0  0  0  0  0  0  0  0  0  0
   -1.2760   10.5259   -6.4975 H   0  0  0  0  0  0  0  0  0  0  0  0
   -1.2598   11.5631   -1.6447 H   0  0  0  0  0  0  0  0  0  0  0  0
    0.4191   12.0742   -5.5787 H   0  0  0  0  0  0  0  0  0  0  0  0
    1.2400   14.7054    1.7028 H   0  0  0  0  0  0  0  0  0  0  0  0
   -3.5602   15.9061   -1.1590 H   0  0  0  0  0  0  0  0  0  0  0  0
   -3.7324   14.1180   -1.1867 H   0  0  0  0  0  0  0  0  0  0  0  0
   -4.9322   15.8614    0.7409 H   0  0  0  0  0  0  0  0  0  0  0  0
   -4.7659   14.1059    0.8946 H   0  0  0  0  0  0  0  0  0  0  0  0
    0.9912   12.5585   -1.9685 H   0  0  0  0  0  0  0  0  0  0  0  0
    1.6413   12.7722   -3.5820 H   0  0  0  0  0  0  0  0  0  0  0  0
    1.0509   14.9607   -2.5758 H   0  0  0  0  0  0  0  0  0  0  0  0
    0.0429   14.6754   -4.0055 H   0  0  0  0  0  0  0  0  0  0  0  0
   -3.4345   15.2857    2.7913 H   0  0  0  0  0  0  0  0  0  0  0  0
   -1.8051   14.5820   -2.6257 H   0  0  0  0  0  0  0  0  0  0  0  0
  1  2  1  0  0  0  0
  1  3  2  0  0  0  0
  2  4  2  0  0  0  0
  3  5  1  0  0  0  0
  4  8  1  0  0  0  0
  5  8  2  0  0  0  0
  6 15  1  0  0  0  0
  6 16  2  0  0  0  0
  7  9  1  0  0  0  0
  7 10  2  0  0  0  0
  7 11  1  0  0  0  0
  8 13  1  0  0  0  0
  9 15  2  0  0  0  0
  9 17  1  0  0  0  0
 10 16  1  0  0  0  0
 10 18  1  0  0  0  0
 11 12  1  0  0  0  0
 12 17  1  0  0  0  0
 13 14  1  0  0  0  0
 14 18  1  0  0  0  0
  1 19  1  0  0  0  0
  2 20  1  0  0  0  0
  3 21  1  0  0  0  0
  4 22  1  0  0  0  0
  5 23  1  0  0  0  0
  6 24  1  0  0  0  0
 11 25  1  0  0  0  0
 11 26  1  0  0  0  0
 12 27  1  0  0  0  0
 12 28  1  0  0  0  0
 13 29  1  0  0  0  0
 13 30  1  0  0  0  0
 14 31  1  0  0  0  0
 14 32  1  0  0  0  0
 17 33  1  0  0  0  0
 18 34  1  0  0  0  0
M  END
> <HYBRID receptor title>
5S18(A) > WOY(A-201)

> <HYBRID receptor filename>
data/docking/5s18.oedu

> <HYBRID Chemgauss4 score>
-8.585576

> <HYBRID receptor title>
5S18(A) > WOY(A-201)

> <HYBRID receptor filename>
data/docking/5s18.oedu

> <Dock Type>
Hybrid

$$$$
MOL0161
  -OEChem-07032400353D

 31 33  0     0  0  0  0  0  0999 V2000
    0.7645   18.0694   -4.8078 C   0  0  0  0  0  0  0  0  0  0  0  0
    1.5784   16.9421   -4.6965 C   0  0  0  0  0  0  0  0  0  0  0  0
   -0.5847   17.9917   -4.4628 C   0  0  0  0  0  0  0  0  0  0  0  0
    1.0433   15.7373   -4.2400 C   0  0  0  0  0  0  0  0  0  0  0  0
   -1.1198   16.7870   -4.0064 C   0  0  0  0  0  0  0  0  0  0  0  0
   -0.4393   14.8518    0.7443 C   0  0  0  0  0  0  0  0  0  0  0  0
   -2.8751   14.9205   -0.3067 C   0  0  0  0  0  0  0  0  0  0  0  0
   -0.3060   15.6596   -3.8950 C   0  0  0  0  0  0  0  0  0  0  0  0
   -2.6687   15.0831    1.0528 C   0  0  0  0  0  0  0  0  0  0  0  0
   -1.7779   14.7265   -1.1037 C   0  0  0  0  0  0  0  0  0  0  0  0
   -4.3199   15.0234   -0.6442 C   0  0  0  0  0  0  0  0  0  0  0  0
   -4.9631   15.0924    0.7583 C   0  0  0  0  0  0  0  0  0  0  0  0
   -0.8824   14.3628   -3.4036 C   0  0  0  0  0  0  0  0  0  0  0  0
   -1.4500   15.0547    1.6166 N   0  0  0  0  0  0  0  0  0  0  0  0
   -0.5287   14.6839   -0.5968 N   0  0  0  0  0  0  0  0  0  0  0  0
   -3.8862   15.2797    1.7157 N   0  0  0  0  0  0  0  0  0  0  0  0
   -1.9655   14.5695   -2.4950 N   0  0  0  0  0  0  0  0  0  0  0  0
    1.1810   19.0073   -5.1632 H   0  0  0  0  0  0  0  0  0  0  0  0
    2.6291   17.0026   -4.9647 H   0  0  0  0  0  0  0  0  0  0  0  0
   -1.2186   18.8693   -4.5496 H   0  0  0  0  0  0  0  0  0  0  0  0
    1.6852   14.8643   -4.1567 H   0  0  0  0  0  0  0  0  0  0  0  0
   -2.1719   16.7365   -3.7390 H   0  0  0  0  0  0  0  0  0  0  0  0
    0.5591   14.8219    1.1641 H   0  0  0  0  0  0  0  0  0  0  0  0
   -4.5189   15.9386   -1.2108 H   0  0  0  0  0  0  0  0  0  0  0  0
   -4.6744   14.1488   -1.1972 H   0  0  0  0  0  0  0  0  0  0  0  0
   -5.6905   15.9086    0.8190 H   0  0  0  0  0  0  0  0  0  0  0  0
   -5.4912   14.1570    0.9783 H   0  0  0  0  0  0  0  0  0  0  0  0
   -1.2543   13.7638   -4.2415 H   0  0  0  0  0  0  0  0  0  0  0  0
   -0.1228   13.7655   -2.8886 H   0  0  0  0  0  0  0  0  0  0  0  0
   -3.9865   15.3756    2.7141 H   0  0  0  0  0  0  0  0  0  0  0  0
   -2.9080   14.6096   -2.8307 H   0  0  0  0  0  0  0  0  0  0  0  0
  1  2  1  0  0  0  0
  1  3  2  0  0  0  0
  2  4  2  0  0  0  0
  3  5  1  0  0  0  0
  4  8  1  0  0  0  0
  5  8  2  0  0  0  0
  6 14  1  0  0  0  0
  6 15  2  0  0  0  0
  7  9  1  0  0  0  0
  7 10  2  0  0  0  0
  7 11  1  0  0  0  0
  8 13  1  0  0  0  0
  9 14  2  0  0  0  0
  9 16  1  0  0  0  0
 10 15  1  0  0  0  0
 10 17  1  0  0  0  0
 11 12  1  0  0  0  0
 12 16  1  0  0  0  0
 13 17  1  0  0  0  0
  1 18  1  0  0  0  0
  2 19  1  0  0  0  0
  3 20  1  0  0  0  0
  4 21  1  0  0  0  0
  5 22  1  0  0  0  0
  6 23  1  0  0  0  0
 11 24  1  0  0  0  0
 11 25  1  0  0  0  0
 12 26  1  0  0  0  0
 12 27  1  0  0  0  0
 13 28  1  0  0  0  0
 13 29  1  0  0  0  0
 16 30  1  0  0  0  0
 17 31  1  0  0  0  0
M  END
> <HYBRID receptor title>
5S18(A) > WOY(A-201)

> <HYBRID receptor filename>
data/docking/5s18.oedu

> <HYBRID Chemgauss4 score>
-8.478203

> <HYBRID receptor title>
5S18(A) > WOY(A-201)

> <HYBRID receptor filename>
data/docking/5s18.oedu

> <Dock Type>
Hybrid

$$$$
MOL0059
  -OEChem-07032400353D

 25 27  0     0  0  0  0  0  0999 V2000
   -0.7947   14.7795   -4.2914 C   0  0  0  0  0  0  0  0  0  0  0  0
   -0.7056   15.0617   -2.9329 C   0  0  0  0  0  0  0  0  0  0  0  0
   -1.6249   13.7419   -4.6851 C   0  0  0  0  0  0  0  0  0  0  0  0
   -2.2400   13.2926   -2.5171 C   0  0  0  0  0  0  0  0  0  0  0  0
   -0.0719   14.7230    1.2702 C   0  0  0  0  0  0  0  0  0  0  0  0
   -1.4387   14.3089   -2.0223 C   0  0  0  0  0  0  0  0  0  0  0  0
   -2.4627   14.9261    0.1364 C   0  0  0  0  0  0  0  0  0  0  0  0
   -1.3667   14.5764   -0.6072 C   0  0  0  0  0  0  0  0  0  0  0  0
   -2.2787   15.1725    1.4865 C   0  0  0  0  0  0  0  0  0  0  0  0
   -3.8828   15.1300   -0.2556 C   0  0  0  0  0  0  0  0  0  0  0  0
   -4.5542   15.3615    1.1159 C   0  0  0  0  0  0  0  0  0  0  0  0
   -2.3522   12.9889   -3.8296 N   0  0  0  0  0  0  0  0  0  0  0  0
   -0.1403   14.4625   -0.0573 N   0  0  0  0  0  0  0  0  0  0  0  0
   -1.0830   15.0797    2.0912 N   0  0  0  0  0  0  0  0  0  0  0  0
   -3.4906   15.5253    2.0924 N   0  0  0  0  0  0  0  0  0  0  0  0
   -0.2311   15.3528   -5.0187 H   0  0  0  0  0  0  0  0  0  0  0  0
   -0.0610   15.8708   -2.5987 H   0  0  0  0  0  0  0  0  0  0  0  0
   -1.7296   13.4810   -5.7332 H   0  0  0  0  0  0  0  0  0  0  0  0
   -2.8368   12.6676   -1.8590 H   0  0  0  0  0  0  0  0  0  0  0  0
    0.9080   14.6359    1.7245 H   0  0  0  0  0  0  0  0  0  0  0  0
   -3.9833   16.0138   -0.8936 H   0  0  0  0  0  0  0  0  0  0  0  0
   -4.3007   14.2509   -0.7548 H   0  0  0  0  0  0  0  0  0  0  0  0
   -5.2068   16.2405    1.0931 H   0  0  0  0  0  0  0  0  0  0  0  0
   -5.1688   14.4949    1.3864 H   0  0  0  0  0  0  0  0  0  0  0  0
   -3.6091   15.7058    3.0769 H   0  0  0  0  0  0  0  0  0  0  0  0
  1  2  2  0  0  0  0
  1  3  1  0  0  0  0
  2  6  1  0  0  0  0
  3 12  2  0  0  0  0
  4  6  2  0  0  0  0
  4 12  1  0  0  0  0
  5 13  2  0  0  0  0
  5 14  1  0  0  0  0
  6  8  1  0  0  0  0
  7  8  2  0  0  0  0
  7  9  1  0  0  0  0
  7 10  1  0  0  0  0
  8 13  1  0  0  0  0
  9 14  2  0  0  0  0
  9 15  1  0  0  0  0
 10 11  1  0  0  0  0
 11 15  1  0  0  0  0
  1 16  1  0  0  0  0
  2 17  1  0  0  0  0
  3 18  1  0  0  0  0
  4 19  1  0  0  0  0
  5 20  1  0  0  0  0
 10 21  1  0  0  0  0
 10 22  1  0  0  0  0
 11 23  1  0  0  0  0
 11 24  1  0  0  0  0
 15 25  1  0  0  0  0
M  END
> <HYBRID receptor title>
5S18(A) > WOY(A-201)

> <HYBRID receptor filename>
data/docking/5s18.oedu

> <HYBRID Chemgauss4 score>
-8.276501

> <HYBRID receptor title>
5S18(A) > WOY(A-201)

> <HYBRID receptor filename>
data/docking/5s18.oedu

> <Dock Type>
Hybrid

$$$$
MOL0195
  -OEChem-07032400353D

 23 24  0     1  0  0  0  0  0999 V2000
   -0.4462   12.1681   -3.0663 C   0  0  0  0  0  0  0  0  0  0  0  0
   -2.4148   15.1353    1.3057 C   0  0  0  0  0  0  0  0  0  0  0  0
   -0.1485   14.8908    1.1513 C   0  0  0  0  0  0  0  0  0  0  0  0
   -2.5111   14.9961   -0.0544 C   0  0  0  0  0  0  0  0  0  0  0  0
   -1.3428   14.7895   -0.7709 C   0  0  0  0  0  0  0  0  0  0  0  0
   -3.6974   14.9879   -0.9473 C   0  0  0  0  0  0  0  0  0  0  0  0
   -3.0290   15.0367   -2.3352 C   0  0  0  0  0  0  0  0  0  0  0  0
   -0.7334   13.2963   -3.9644 C   0  0  0  0  0  0  0  0  0  0  0  0
   -0.6926   14.6329   -3.2313 C   0  0  0  0  0  0  0  0  0  0  0  0
   -0.2197   11.2755   -2.3594 N   0  0  0  0  0  0  0  0  0  0  0  0
   -1.2275   15.0898    1.9436 N   0  0  0  0  0  0  0  0  0  0  0  0
   -0.1316   14.7330   -0.1900 N   0  0  0  0  0  0  0  0  0  0  0  0
   -1.6268   14.6523   -2.1599 N   0  0  1  0  0  0  0  0  0  0  0  0
   -3.2842   15.2896    1.9333 H   0  0  0  0  0  0  0  0  0  0  0  0
    0.8119   14.8555    1.6507 H   0  0  0  0  0  0  0  0  0  0  0  0
   -4.2997   14.0833   -0.8263 H   0  0  0  0  0  0  0  0  0  0  0  0
   -4.3100   15.8785   -0.7744 H   0  0  0  0  0  0  0  0  0  0  0  0
   -3.5223   14.3218   -3.0064 H   0  0  0  0  0  0  0  0  0  0  0  0
   -3.1162   16.0312   -2.7854 H   0  0  0  0  0  0  0  0  0  0  0  0
   -0.0189   13.2965   -4.7960 H   0  0  0  0  0  0  0  0  0  0  0  0
   -1.7304   13.1594   -4.3979 H   0  0  0  0  0  0  0  0  0  0  0  0
   -0.9087   15.4603   -3.9158 H   0  0  0  0  0  0  0  0  0  0  0  0
    0.3094   14.7952   -2.8211 H   0  0  0  0  0  0  0  0  0  0  0  0
  1  8  1  0  0  0  0
  1 10  3  0  0  0  0
  2  4  1  0  0  0  0
  2 11  2  0  0  0  0
  3 11  1  0  0  0  0
  3 12  2  0  0  0  0
  4  5  2  0  0  0  0
  4  6  1  0  0  0  0
  5 12  1  0  0  0  0
  5 13  1  0  0  0  0
  6  7  1  0  0  0  0
  7 13  1  0  0  0  0
  8  9  1  0  0  0  0
  9 13  1  0  0  0  0
  2 14  1  0  0  0  0
  3 15  1  0  0  0  0
  6 16  1  0  0  0  0
  6 17  1  0  0  0  0
  7 18  1  0  0  0  0
  7 19  1  0  0  0  0
  8 20  1  0  0  0  0
  8 21  1  0  0  0  0
  9 22  1  0  0  0  0
  9 23  1  0  0  0  0
M  END
> <HYBRID receptor title>
5S18(A) > WOY(A-201)

> <HYBRID receptor filename>
data/docking/5s18.oedu

> <HYBRID Chemgauss4 score>
-8.203267

> <HYBRID receptor title>
5S18(A) > WOY(A-201)

> <HYBRID receptor filename>
data/docking/5s18.oedu

> <Dock Type>
Hybrid

$$$$
MOL0113
  -OEChem-07032400353D

 28 30  0     0  0  0  0  0  0999 V2000
   -3.4275   12.8323   -5.0058 C   0  0  0  0  0  0  0  0  0  0  0  0
   -3.0038   14.1515   -5.1669 C   0  0  0  0  0  0  0  0  0  0  0  0
   -2.9605   12.0769   -3.9302 C   0  0  0  0  0  0  0  0  0  0  0  0
   -2.1137   14.7153   -4.2527 C   0  0  0  0  0  0  0  0  0  0  0  0
   -2.0704   12.6407   -3.0160 C   0  0  0  0  0  0  0  0  0  0  0  0
    0.1479   14.9682    1.1954 C   0  0  0  0  0  0  0  0  0  0  0  0
   -2.0488   14.9765   -0.2935 C   0  0  0  0  0  0  0  0  0  0  0  0
   -1.6467   13.9598   -3.1771 C   0  0  0  0  0  0  0  0  0  0  0  0
   -2.0989   15.2033    1.0715 C   0  0  0  0  0  0  0  0  0  0  0  0
   -0.8231   14.7507   -0.8619 C   0  0  0  0  0  0  0  0  0  0  0  0
   -3.4049   15.0570   -0.8990 C   0  0  0  0  0  0  0  0  0  0  0  0
   -4.2981   15.1883    0.3542 C   0  0  0  0  0  0  0  0  0  0  0  0
   -1.0069   15.2069    1.8535 N   0  0  0  0  0  0  0  0  0  0  0  0
    0.3095   14.7376   -0.1295 N   0  0  0  0  0  0  0  0  0  0  0  0
   -3.4178   15.4250    1.4859 N   0  0  0  0  0  0  0  0  0  0  0  0
   -0.7484   14.5281   -2.2549 N   0  0  0  0  0  0  0  0  0  0  0  0
   -4.1197   12.3933   -5.7181 H   0  0  0  0  0  0  0  0  0  0  0  0
   -3.3677   14.7400   -6.0043 H   0  0  0  0  0  0  0  0  0  0  0  0
   -3.2904   11.0497   -3.8048 H   0  0  0  0  0  0  0  0  0  0  0  0
   -1.7896   15.7438   -4.3889 H   0  0  0  0  0  0  0  0  0  0  0  0
   -1.7128   12.0433   -2.1811 H   0  0  0  0  0  0  0  0  0  0  0  0
    1.0504   14.9625    1.7950 H   0  0  0  0  0  0  0  0  0  0  0  0
   -3.4908   15.9438   -1.5348 H   0  0  0  0  0  0  0  0  0  0  0  0
   -3.6536   14.1559   -1.4669 H   0  0  0  0  0  0  0  0  0  0  0  0
   -5.0206   16.0031    0.2400 H   0  0  0  0  0  0  0  0  0  0  0  0
   -4.8618   14.2617    0.5152 H   0  0  0  0  0  0  0  0  0  0  0  0
   -3.7022   15.5669    2.4424 H   0  0  0  0  0  0  0  0  0  0  0  0
    0.1243   14.8395   -2.6688 H   0  0  0  0  0  0  0  0  0  0  0  0
  1  2  1  0  0  0  0
  1  3  2  0  0  0  0
  2  4  2  0  0  0  0
  3  5  1  0  0  0  0
  4  8  1  0  0  0  0
  5  8  2  0  0  0  0
  6 13  1  0  0  0  0
  6 14  2  0  0  0  0
  7  9  1  0  0  0  0
  7 10  2  0  0  0  0
  7 11  1  0  0  0  0
  8 16  1  0  0  0  0
  9 13  2  0  0  0  0
  9 15  1  0  0  0  0
 10 14  1  0  0  0  0
 10 16  1  0  0  0  0
 11 12  1  0  0  0  0
 12 15  1  0  0  0  0
  1 17  1  0  0  0  0
  2 18  1  0  0  0  0
  3 19  1  0  0  0  0
  4 20  1  0  0  0  0
  5 21  1  0  0  0  0
  6 22  1  0  0  0  0
 11 23  1  0  0  0  0
 11 24  1  0  0  0  0
 12 25  1  0  0  0  0
 12 26  1  0  0  0  0
 15 27  1  0  0  0  0
 16 28  1  0  0  0  0
M  END
> <HYBRID receptor title>
5S18(A) > WOY(A-201)

> <HYBRID receptor filename>
data/docking/5s18.oedu

> <HYBRID Chemgauss4 score>
-8.195113

> <HYBRID receptor title>
5S18(A) > WOY(A-201)

> <HYBRID receptor filename>
data/docking/5s18.oedu

> <Dock Type>
Hybrid

$$$$
MOL0121
  -OEChem-07032400353D

 29 31  0     1  0  0  0  0  0999 V2000
   -0.6874   15.1213   -3.9187 C   0  0  0  0  0  0  0  0  0  0  0  0
   -0.2339   13.0920   -2.6884 C   0  0  0  0  0  0  0  0  0  0  0  0
    0.6815   15.3756   -4.0027 C   0  0  0  0  0  0  0  0  0  0  0  0
    1.1350   13.3462   -2.7724 C   0  0  0  0  0  0  0  0  0  0  0  0
   -3.0199   15.1994    1.4575 C   0  0  0  0  0  0  0  0  0  0  0  0
   -0.8863   14.7891    0.7527 C   0  0  0  0  0  0  0  0  0  0  0  0
   -3.4799   14.8986    0.2016 C   0  0  0  0  0  0  0  0  0  0  0  0
   -1.1451   13.9793   -3.2615 C   0  0  0  0  0  0  0  0  0  0  0  0
    1.5926   14.4882   -3.4296 C   0  0  0  0  0  0  0  0  0  0  0  0
   -2.5501   14.5484   -0.7643 C   0  0  0  0  0  0  0  0  0  0  0  0
   -4.8557   14.9131   -0.3575 C   0  0  0  0  0  0  0  0  0  0  0  0
   -4.6317   14.2359   -1.7232 C   0  0  0  0  0  0  0  0  0  0  0  0
   -2.6189   13.7059   -3.1696 C   0  0  0  0  0  0  0  0  0  0  0  0
   -1.7083   15.1484    1.7659 N   0  0  0  0  0  0  0  0  0  0  0  0
   -1.2302   14.4815   -0.5161 N   0  0  0  0  0  0  0  0  0  0  0  0
   -3.1956   14.2839   -2.0055 N   0  0  2  0  0  0  0  0  0  0  0  0
    2.9068   14.7335   -3.5102 F   0  0  0  0  0  0  0  0  0  0  0  0
   -1.3902   15.8175   -4.3685 H   0  0  0  0  0  0  0  0  0  0  0  0
   -0.5817   12.1995   -2.1746 H   0  0  0  0  0  0  0  0  0  0  0  0
    1.0387   16.2643   -4.5142 H   0  0  0  0  0  0  0  0  0  0  0  0
    1.8447   12.6557   -2.3261 H   0  0  0  0  0  0  0  0  0  0  0  0
   -3.6847   15.4934    2.2606 H   0  0  0  0  0  0  0  0  0  0  0  0
    0.1707   14.7446    0.9873 H   0  0  0  0  0  0  0  0  0  0  0  0
   -5.5582   14.3455    0.2590 H   0  0  0  0  0  0  0  0  0  0  0  0
   -5.2049   15.9431   -0.4816 H   0  0  0  0  0  0  0  0  0  0  0  0
   -4.9591   13.1893   -1.6732 H   0  0  0  0  0  0  0  0  0  0  0  0
   -5.2095   14.7284   -2.5125 H   0  0  0  0  0  0  0  0  0  0  0  0
   -3.1417   14.1112   -4.0422 H   0  0  0  0  0  0  0  0  0  0  0  0
   -2.8177   12.6294   -3.1423 H   0  0  0  0  0  0  0  0  0  0  0  0
  1  3  2  0  0  0  0
  1  8  1  0  0  0  0
  2  4  1  0  0  0  0
  2  8  2  0  0  0  0
  3  9  1  0  0  0  0
  4  9  2  0  0  0  0
  5  7  1  0  0  0  0
  5 14  2  0  0  0  0
  6 14  1  0  0  0  0
  6 15  2  0  0  0  0
  7 10  2  0  0  0  0
  7 11  1  0  0  0  0
  8 13  1  0  0  0  0
  9 17  1  0  0  0  0
 10 15  1  0  0  0  0
 10 16  1  0  0  0  0
 11 12  1  0  0  0  0
 12 16  1  0  0  0  0
 13 16  1  0  0  0  0
  1 18  1  0  0  0  0
  2 19  1  0  0  0  0
  3 20  1  0  0  0  0
  4 21  1  0  0  0  0
  5 22  1  0  0  0  0
  6 23  1  0  0  0  0
 11 24  1  0  0  0  0
 11 25  1  0  0  0  0
 12 26  1  0  0  0  0
 12 27  1  0  0  0  0
 13 28  1  0  0  0  0
 13 29  1  0  0  0  0
M  END
> <HYBRID receptor title>
5S18(A) > WOY(A-201)

> <HYBRID receptor filename>
data/docking/5s18.oedu

> <HYBRID Chemgauss4 score>
-8.169860

> <HYBRID receptor title>
5S18(A) > WOY(A-201)

> <HYBRID receptor filename>
data/docking/5s18.oedu

> <Dock Type>
Hybrid

$$$$
MOL0202
  -OEChem-07032400353D

 25 27  0     0  0  0  0  0  0999 V2000
   -0.0824   15.1056   -3.0801 C   0  0  0  0  0  0  0  0  0  0  0  0
    0.0207   14.8246   -4.4379 C   0  0  0  0  0  0  0  0  0  0  0  0
   -1.3435   13.1064   -2.8150 C   0  0  0  0  0  0  0  0  0  0  0  0
    0.1471   14.8419    1.1687 C   0  0  0  0  0  0  0  0  0  0  0  0
   -0.7756   14.2355   -2.2461 C   0  0  0  0  0  0  0  0  0  0  0  0
   -2.1104   14.6605   -0.2145 C   0  0  0  0  0  0  0  0  0  0  0  0
   -0.8992   14.5003   -0.8340 C   0  0  0  0  0  0  0  0  0  0  0  0
   -2.1138   14.9232    1.1451 C   0  0  0  0  0  0  0  0  0  0  0  0
   -0.5824   13.6695   -4.9089 C   0  0  0  0  0  0  0  0  0  0  0  0
   -3.4948   14.6328   -0.7571 C   0  0  0  0  0  0  0  0  0  0  0  0
   -4.3371   14.7410    0.5330 C   0  0  0  0  0  0  0  0  0  0  0  0
   -1.2641   12.8004   -4.1296 N   0  0  0  0  0  0  0  0  0  0  0  0
    0.2637   14.5840   -0.1559 N   0  0  0  0  0  0  0  0  0  0  0  0
   -0.9901   15.0223    1.8742 N   0  0  0  0  0  0  0  0  0  0  0  0
   -3.4245   15.0687    1.6153 N   0  0  0  0  0  0  0  0  0  0  0  0
   -0.5110   13.2458   -6.5700 Cl  0  0  0  0  0  0  0  0  0  0  0  0
    0.3825   16.0064   -2.6873 H   0  0  0  0  0  0  0  0  0  0  0  0
    0.5594   15.4969   -5.0971 H   0  0  0  0  0  0  0  0  0  0  0  0
   -1.8981   12.3876   -2.2187 H   0  0  0  0  0  0  0  0  0  0  0  0
    1.0741   14.9125    1.7254 H   0  0  0  0  0  0  0  0  0  0  0  0
   -3.6698   15.4932   -1.4108 H   0  0  0  0  0  0  0  0  0  0  0  0
   -3.7082   13.7011   -1.2891 H   0  0  0  0  0  0  0  0  0  0  0  0
   -5.1182   15.5017    0.4324 H   0  0  0  0  0  0  0  0  0  0  0  0
   -4.8273   13.7835    0.7452 H   0  0  0  0  0  0  0  0  0  0  0  0
   -3.6749   15.2199    2.5799 H   0  0  0  0  0  0  0  0  0  0  0  0
  1  2  2  0  0  0  0
  1  5  1  0  0  0  0
  2  9  1  0  0  0  0
  3  5  2  0  0  0  0
  3 12  1  0  0  0  0
  4 13  2  0  0  0  0
  4 14  1  0  0  0  0
  5  7  1  0  0  0  0
  6  7  2  0  0  0  0
  6  8  1  0  0  0  0
  6 10  1  0  0  0  0
  7 13  1  0  0  0  0
  8 14  2  0  0  0  0
  8 15  1  0  0  0  0
  9 12  2  0  0  0  0
  9 16  1  0  0  0  0
 10 11  1  0  0  0  0
 11 15  1  0  0  0  0
  1 17  1  0  0  0  0
  2 18  1  0  0  0  0
  3 19  1  0  0  0  0
  4 20  1  0  0  0  0
 10 21  1  0  0  0  0
 10 22  1  0  0  0  0
 11 23  1  0  0  0  0
 11 24  1  0  0  0  0
 15 25  1  0  0  0  0
M  END
> <HYBRID receptor title>
5S18(A) > WOY(A-201)

> <HYBRID receptor filename>
data/docking/5s18.oedu

> <HYBRID Chemgauss4 score>
-8.126489

> <HYBRID receptor title>
5S18(A) > WOY(A-201)

> <HYBRID receptor filename>
data/docking/5s18.oedu

> <Dock Type>
Hybrid

$$$$
MOL0024
  -OEChem-07032400353D

 29 31  0     1  0  0  0  0  0999 V2000
   -1.0329   11.0029   -4.4589 C   0  0  0  0  0  0  0  0  0  0  0  0
   -0.3901   12.1669   -4.8803 C   0  0  0  0  0  0  0  0  0  0  0  0
   -2.1571   11.0860   -3.6374 C   0  0  0  0  0  0  0  0  0  0  0  0
   -0.8714   13.4137   -4.4807 C   0  0  0  0  0  0  0  0  0  0  0  0
   -2.6384   12.3329   -3.2378 C   0  0  0  0  0  0  0  0  0  0  0  0
   -3.0171   15.0074    1.6212 C   0  0  0  0  0  0  0  0  0  0  0  0
   -0.8704   14.7648    0.8777 C   0  0  0  0  0  0  0  0  0  0  0  0
   -3.4584   14.9711    0.3241 C   0  0  0  0  0  0  0  0  0  0  0  0
   -1.9957   13.4969   -3.6592 C   0  0  0  0  0  0  0  0  0  0  0  0
   -2.5152   14.8135   -0.6792 C   0  0  0  0  0  0  0  0  0  0  0  0
   -4.8322   15.0353   -0.2355 C   0  0  0  0  0  0  0  0  0  0  0  0
   -4.5367   15.1850   -1.7406 C   0  0  0  0  0  0  0  0  0  0  0  0
   -2.5141   14.8390   -3.2287 C   0  0  0  0  0  0  0  0  0  0  0  0
   -1.7082   14.9088    1.9307 N   0  0  0  0  0  0  0  0  0  0  0  0
   -1.1979   14.7081   -0.4314 N   0  0  0  0  0  0  0  0  0  0  0  0
   -3.1453   14.7822   -1.9562 N   0  0  1  0  0  0  0  0  0  0  0  0
   -0.6583   10.0322   -4.7699 H   0  0  0  0  0  0  0  0  0  0  0  0
    0.4850   12.1023   -5.5202 H   0  0  0  0  0  0  0  0  0  0  0  0
   -2.6576   10.1799   -3.3090 H   0  0  0  0  0  0  0  0  0  0  0  0
   -0.3639   14.3151   -4.8140 H   0  0  0  0  0  0  0  0  0  0  0  0
   -3.5156   12.3876   -2.5985 H   0  0  0  0  0  0  0  0  0  0  0  0
   -3.6950   15.1182    2.4588 H   0  0  0  0  0  0  0  0  0  0  0  0
    0.1842   14.6878    1.1121 H   0  0  0  0  0  0  0  0  0  0  0  0
   -5.4052   14.1269   -0.0300 H   0  0  0  0  0  0  0  0  0  0  0  0
   -5.3599   15.9132    0.1509 H   0  0  0  0  0  0  0  0  0  0  0  0
   -5.2008   14.5247   -2.3134 H   0  0  0  0  0  0  0  0  0  0  0  0
   -4.7118   16.2109   -2.0816 H   0  0  0  0  0  0  0  0  0  0  0  0
   -1.6981   15.5667   -3.1686 H   0  0  0  0  0  0  0  0  0  0  0  0
   -3.2437   15.2270   -3.9471 H   0  0  0  0  0  0  0  0  0  0  0  0
  1  2  1  0  0  0  0
  1  3  2  0  0  0  0
  2  4  2  0  0  0  0
  3  5  1  0  0  0  0
  4  9  1  0  0  0  0
  5  9  2  0  0  0  0
  6  8  1  0  0  0  0
  6 14  2  0  0  0  0
  7 14  1  0  0  0  0
  7 15  2  0  0  0  0
  8 10  2  0  0  0  0
  8 11  1  0  0  0  0
  9 13  1  0  0  0  0
 10 15  1  0  0  0  0
 10 16  1  0  0  0  0
 11 12  1  0  0  0  0
 12 16  1  0  0  0  0
 13 16  1  0  0  0  0
  1 17  1  0  0  0  0
  2 18  1  0  0  0  0
  3 19  1  0  0  0  0
  4 20  1  0  0  0  0
  5 21  1  0  0  0  0
  6 22  1  0  0  0  0
  7 23  1  0  0  0  0
 11 24  1  0  0  0  0
 11 25  1  0  0  0  0
 12 26  1  0  0  0  0
 12 27  1  0  0  0  0
 13 28  1  0  0  0  0
 13 29  1  0  0  0  0
M  END
> <HYBRID receptor title>
5S18(A) > WOY(A-201)

> <HYBRID receptor filename>
data/docking/5s18.oedu

> <HYBRID Chemgauss4 score>
-8.116169

> <HYBRID receptor title>
5S18(A) > WOY(A-201)

> <HYBRID receptor filename>
data/docking/5s18.oedu

> <Dock Type>
Hybrid

$$$$
MOL0210
  -OEChem-07032400353D

 29 31  0     1  0  0  0  0  0999 V2000
    1.3413   15.5436   -3.3403 C   0  0  0  0  0  0  0  0  0  0  0  0
   -0.0504   15.5010   -3.4251 C   0  0  0  0  0  0  0  0  0  0  0  0
    2.0607   14.3735   -3.0979 C   0  0  0  0  0  0  0  0  0  0  0  0
   -0.0030   13.1187   -3.0255 C   0  0  0  0  0  0  0  0  0  0  0  0
   -2.9437   15.2184    1.3662 C   0  0  0  0  0  0  0  0  0  0  0  0
   -0.8238   14.5622    0.8250 C   0  0  0  0  0  0  0  0  0  0  0  0
   -3.2912   15.1464    0.0421 C   0  0  0  0  0  0  0  0  0  0  0  0
   -0.7225   14.2888   -3.2679 C   0  0  0  0  0  0  0  0  0  0  0  0
    1.3886   13.1612   -2.9407 C   0  0  0  0  0  0  0  0  0  0  0  0
   -2.3146   14.7711   -0.8665 C   0  0  0  0  0  0  0  0  0  0  0  0
   -4.5750   15.4454   -0.6421 C   0  0  0  0  0  0  0  0  0  0  0  0
   -4.2920   14.9092   -2.0585 C   0  0  0  0  0  0  0  0  0  0  0  0
   -2.2208   14.2434   -3.3590 C   0  0  0  0  0  0  0  0  0  0  0  0
   -1.6987   14.9237    1.7921 N   0  0  0  0  0  0  0  0  0  0  0  0
   -1.0567   14.4668   -0.5014 N   0  0  0  0  0  0  0  0  0  0  0  0
   -2.8409   14.7623   -2.1894 N   0  0  2  0  0  0  0  0  0  0  0  0
    2.0801   12.0381   -2.7071 F   0  0  0  0  0  0  0  0  0  0  0  0
    1.8651   16.4870   -3.4631 H   0  0  0  0  0  0  0  0  0  0  0  0
   -0.6027   16.4176   -3.6146 H   0  0  0  0  0  0  0  0  0  0  0  0
    3.1442   14.4049   -3.0317 H   0  0  0  0  0  0  0  0  0  0  0  0
   -0.5187   12.1704   -2.9004 H   0  0  0  0  0  0  0  0  0  0  0  0
   -3.6488   15.5160    2.1327 H   0  0  0  0  0  0  0  0  0  0  0  0
    0.1807   14.3231    1.1540 H   0  0  0  0  0  0  0  0  0  0  0  0
   -5.4198   14.9268   -0.1804 H   0  0  0  0  0  0  0  0  0  0  0  0
   -4.7547   16.5251   -0.6587 H   0  0  0  0  0  0  0  0  0  0  0  0
   -4.7708   13.9293   -2.1836 H   0  0  0  0  0  0  0  0  0  0  0  0
   -4.6956   15.5777   -2.8265 H   0  0  0  0  0  0  0  0  0  0  0  0
   -2.5732   14.8277   -4.2154 H   0  0  0  0  0  0  0  0  0  0  0  0
   -2.5749   13.2166   -3.4979 H   0  0  0  0  0  0  0  0  0  0  0  0
  1  2  1  0  0  0  0
  1  3  2  0  0  0  0
  2  8  2  0  0  0  0
  3  9  1  0  0  0  0
  4  8  1  0  0  0  0
  4  9  2  0  0  0  0
  5  7  1  0  0  0  0
  5 14  2  0  0  0  0
  6 14  1  0  0  0  0
  6 15  2  0  0  0  0
  7 10  2  0  0  0  0
  7 11  1  0  0  0  0
  8 13  1  0  0  0  0
  9 17  1  0  0  0  0
 10 15  1  0  0  0  0
 10 16  1  0  0  0  0
 11 12  1  0  0  0  0
 12 16  1  0  0  0  0
 13 16  1  0  0  0  0
  1 18  1  0  0  0  0
  2 19  1  0  0  0  0
  3 20  1  0  0  0  0
  4 21  1  0  0  0  0
  5 22  1  0  0  0  0
  6 23  1  0  0  0  0
 11 24  1  0  0  0  0
 11 25  1  0  0  0  0
 12 26  1  0  0  0  0
 12 27  1  0  0  0  0
 13 28  1  0  0  0  0
 13 29  1  0  0  0  0
M  END
> <HYBRID receptor title>
5S18(A) > WOY(A-201)

> <HYBRID receptor filename>
data/docking/5s18.oedu

> <HYBRID Chemgauss4 score>
-8.116054

> <HYBRID receptor title>
5S18(A) > WOY(A-201)

> <HYBRID receptor filename>
data/docking/5s18.oedu

> <Dock Type>
Hybrid

$$$$
MOL0083
  -OEChem-07032400353D

 26 28  0     0  0  0  0  0  0999 V2000
   -1.2811   13.2033   -2.8785 C   0  0  0  0  0  0  0  0  0  0  0  0
    0.3350   14.9923   -3.0369 C   0  0  0  0  0  0  0  0  0  0  0  0
   -1.1047   12.9248   -4.2338 C   0  0  0  0  0  0  0  0  0  0  0  0
    0.5114   14.7139   -4.3922 C   0  0  0  0  0  0  0  0  0  0  0  0
    0.1948   14.6990    1.1979 C   0  0  0  0  0  0  0  0  0  0  0  0
   -0.5610   14.2371   -2.2801 C   0  0  0  0  0  0  0  0  0  0  0  0
   -1.9531   14.8878   -0.3492 C   0  0  0  0  0  0  0  0  0  0  0  0
   -0.2087   13.6800   -4.9907 C   0  0  0  0  0  0  0  0  0  0  0  0
   -0.7428   14.5257   -0.8790 C   0  0  0  0  0  0  0  0  0  0  0  0
   -2.0133   15.1542    1.0083 C   0  0  0  0  0  0  0  0  0  0  0  0
   -3.2791   15.0875   -0.9925 C   0  0  0  0  0  0  0  0  0  0  0  0
   -4.1847   15.3403    0.2329 C   0  0  0  0  0  0  0  0  0  0  0  0
    0.3645   14.4187   -0.1164 N   0  0  0  0  0  0  0  0  0  0  0  0
   -0.9457   15.0691    1.8189 N   0  0  0  0  0  0  0  0  0  0  0  0
   -3.3128   15.5175    1.3818 N   0  0  0  0  0  0  0  0  0  0  0  0
   -0.0401   13.4124   -6.2922 F   0  0  0  0  0  0  0  0  0  0  0  0
   -1.9840   12.6062   -2.3025 H   0  0  0  0  0  0  0  0  0  0  0  0
    0.9031   15.8018   -2.5844 H   0  0  0  0  0  0  0  0  0  0  0  0
   -1.6661   12.1209   -4.7009 H   0  0  0  0  0  0  0  0  0  0  0  0
    1.2084   15.3014   -4.9822 H   0  0  0  0  0  0  0  0  0  0  0  0
    1.0770   14.6175    1.8218 H   0  0  0  0  0  0  0  0  0  0  0  0
   -3.2602   15.9617   -1.6509 H   0  0  0  0  0  0  0  0  0  0  0  0
   -3.6041   14.2015   -1.5457 H   0  0  0  0  0  0  0  0  0  0  0  0
   -4.8192   16.2196    0.0806 H   0  0  0  0  0  0  0  0  0  0  0  0
   -4.8412   14.4786    0.4013 H   0  0  0  0  0  0  0  0  0  0  0  0
   -3.6052   15.7128    2.3264 H   0  0  0  0  0  0  0  0  0  0  0  0
  1  3  2  0  0  0  0
  1  6  1  0  0  0  0
  2  4  1  0  0  0  0
  2  6  2  0  0  0  0
  3  8  1  0  0  0  0
  4  8  2  0  0  0  0
  5 13  2  0  0  0  0
  5 14  1  0  0  0  0
  6  9  1  0  0  0  0
  7  9  2  0  0  0  0
  7 10  1  0  0  0  0
  7 11  1  0  0  0  0
  8 16  1  0  0  0  0
  9 13  1  0  0  0  0
 10 14  2  0  0  0  0
 10 15  1  0  0  0  0
 11 12  1  0  0  0  0
 12 15  1  0  0  0  0
  1 17  1  0  0  0  0
  2 18  1  0  0  0  0
  3 19  1  0  0  0  0
  4 20  1  0  0  0  0
  5 21  1  0  0  0  0
 11 22  1  0  0  0  0
 11 23  1  0  0  0  0
 12 24  1  0  0  0  0
 12 25  1  0  0  0  0
 15 26  1  0  0  0  0
M  END
> <HYBRID receptor title>
5S18(A) > WOY(A-201)

> <HYBRID receptor filename>
data/docking/5s18.oedu

> <HYBRID Chemgauss4 score>
-8.082346

> <HYBRID receptor title>
5S18(A) > WOY(A-201)

> <HYBRID receptor filename>
data/docking/5s18.oedu

> <Dock Type>
Hybrid

$$$$
MOL0180
  -OEChem-07032400353D

 25 26  0     1  0  0  0  0  0999 V2000
   -1.5312   14.5859   -1.1286 C   0  0  0  0  0  0  0  0  0  0  0  0
   -0.1327   14.5671    0.6786 C   0  0  0  0  0  0  0  0  0  0  0  0
   -2.5725   14.9355   -0.3077 C   0  0  0  0  0  0  0  0  0  0  0  0
   -2.3021   15.0956    1.0429 C   0  0  0  0  0  0  0  0  0  0  0  0
   -4.5914   15.3073    0.8362 C   0  0  0  0  0  0  0  0  0  0  0  0
   -4.0053   15.2420   -0.5987 C   0  0  2  0  0  0  0  0  0  0  0  0
   -6.2215   14.2857   -1.2915 C   0  0  0  0  0  0  0  0  0  0  0  0
   -4.3303   14.3948   -2.9404 C   0  0  0  0  0  0  0  0  0  0  0  0
   -4.7039   14.2091   -1.4686 C   0  0  0  0  0  0  0  0  0  0  0  0
   -0.2842   14.3876   -0.6546 N   0  0  0  0  0  0  0  0  0  0  0  0
   -1.0809   14.9183    1.5738 N   0  0  0  0  0  0  0  0  0  0  0  0
   -3.4633   15.4610    1.7398 N   0  0  0  0  0  0  0  0  0  0  0  0
   -1.6551   14.4572   -2.1970 H   0  0  0  0  0  0  0  0  0  0  0  0
    0.8649   14.4119    1.0719 H   0  0  0  0  0  0  0  0  0  0  0  0
   -5.2915   16.1433    0.9373 H   0  0  0  0  0  0  0  0  0  0  0  0
   -5.1303   14.3864    1.0906 H   0  0  0  0  0  0  0  0  0  0  0  0
   -4.0657   16.2332   -1.0650 H   0  0  0  0  0  0  0  0  0  0  0  0
   -6.5960   15.2704   -1.5903 H   0  0  0  0  0  0  0  0  0  0  0  0
   -6.5034   14.1238   -0.2461 H   0  0  0  0  0  0  0  0  0  0  0  0
   -6.7301   13.5306   -1.9008 H   0  0  0  0  0  0  0  0  0  0  0  0
   -4.6373   15.3818   -3.3022 H   0  0  0  0  0  0  0  0  0  0  0  0
   -3.2494   14.3007   -3.0893 H   0  0  0  0  0  0  0  0  0  0  0  0
   -4.8248   13.6415   -3.5619 H   0  0  0  0  0  0  0  0  0  0  0  0
   -4.3750   13.2073   -1.1577 H   0  0  0  0  0  0  0  0  0  0  0  0
   -3.5154   15.5597    2.7419 H   0  0  0  0  0  0  0  0  0  0  0  0
  1  3  1  0  0  0  0
  1 10  2  0  0  0  0
  2 10  1  0  0  0  0
  2 11  2  0  0  0  0
  3  4  2  0  0  0  0
  3  6  1  0  0  0  0
  4 11  1  0  0  0  0
  4 12  1  0  0  0  0
  5  6  1  0  0  0  0
  5 12  1  0  0  0  0
  6  9  1  0  0  0  0
  7  9  1  0  0  0  0
  8  9  1  0  0  0  0
  1 13  1  0  0  0  0
  2 14  1  0  0  0  0
  5 15  1  0  0  0  0
  5 16  1  0  0  0  0
  6 17  1  0  0  0  0
  7 18  1  0  0  0  0
  7 19  1  0  0  0  0
  7 20  1  0  0  0  0
  8 21  1  0  0  0  0
  8 22  1  0  0  0  0
  8 23  1  0  0  0  0
  9 24  1  0  0  0  0
 12 25  1  0  0  0  0
M  END
> <HYBRID receptor title>
5S18(A) > WOY(A-201)

> <HYBRID receptor filename>
data/docking/5s18.oedu

> <HYBRID Chemgauss4 score>
-7.989085

> <HYBRID receptor title>
5S18(A) > WOY(A-201)

> <HYBRID receptor filename>
data/docking/5s18.oedu

> <Dock Type>
Hybrid

$$$$
MOL0170
  -OEChem-07032400353D

 33 35  0     0  0  0  0  0  0999 V2000
   -2.8108   14.9751    1.7428 C   0  0  0  0  0  0  0  0  0  0  0  0
   -0.6869   15.1843    0.9242 C   0  0  0  0  0  0  0  0  0  0  0  0
   -3.2829   14.8187    0.4646 C   0  0  0  0  0  0  0  0  0  0  0  0
   -2.3573   14.8594   -0.5596 C   0  0  0  0  0  0  0  0  0  0  0  0
   -2.3616   14.6686   -3.0263 C   0  0  0  0  0  0  0  0  0  0  0  0
   -4.6720   14.6030   -0.0199 C   0  0  0  0  0  0  0  0  0  0  0  0
    2.0689   14.7672   -3.1105 C   0  0  0  0  0  0  0  0  0  0  0  0
    1.6525   13.3458   -3.4925 C   0  0  0  0  0  0  0  0  0  0  0  0
    1.1257   15.6987   -3.8645 C   0  0  0  0  0  0  0  0  0  0  0  0
    0.4406   13.4890   -4.4102 C   0  0  0  0  0  0  0  0  0  0  0  0
   -4.4617   14.5205   -1.5382 C   0  0  0  0  0  0  0  0  0  0  0  0
   -0.1293   14.8690   -4.1032 C   0  0  0  0  0  0  0  0  0  0  0  0
   -1.5004   15.1619    2.0059 N   0  0  0  0  0  0  0  0  0  0  0  0
   -1.0403   15.0415   -0.3705 N   0  0  0  0  0  0  0  0  0  0  0  0
   -3.0145   14.6825   -1.7945 N   0  0  0  0  0  0  0  0  0  0  0  0
   -0.9832   14.8505   -2.9378 N   0  0  0  0  0  0  0  0  0  0  0  0
   -2.9369   14.5121   -4.1066 O   0  0  0  0  0  0  0  0  0  0  0  0
   -3.4668   14.9561    2.6049 H   0  0  0  0  0  0  0  0  0  0  0  0
    0.3680   15.3336    1.1213 H   0  0  0  0  0  0  0  0  0  0  0  0
   -5.0857   13.6698    0.3734 H   0  0  0  0  0  0  0  0  0  0  0  0
   -5.3174   15.4457    0.2450 H   0  0  0  0  0  0  0  0  0  0  0  0
    2.0135   14.9322   -2.0302 H   0  0  0  0  0  0  0  0  0  0  0  0
    3.1057   14.9441   -3.4176 H   0  0  0  0  0  0  0  0  0  0  0  0
    2.4740   12.8488   -4.0219 H   0  0  0  0  0  0  0  0  0  0  0  0
    1.4159   12.7392   -2.6122 H   0  0  0  0  0  0  0  0  0  0  0  0
    0.9015   16.5763   -3.2387 H   0  0  0  0  0  0  0  0  0  0  0  0
    1.5711   16.0649   -4.7992 H   0  0  0  0  0  0  0  0  0  0  0  0
    0.7130   13.3738   -5.4693 H   0  0  0  0  0  0  0  0  0  0  0  0
   -0.2911   12.7001   -4.1718 H   0  0  0  0  0  0  0  0  0  0  0  0
   -4.7889   13.5543   -1.9388 H   0  0  0  0  0  0  0  0  0  0  0  0
   -5.0068   15.3125   -2.0641 H   0  0  0  0  0  0  0  0  0  0  0  0
   -0.6992   15.2500   -4.9371 H   0  0  0  0  0  0  0  0  0  0  0  0
   -0.5627   14.9747   -2.0223 H   0  0  0  0  0  0  0  0  0  0  0  0
  1  3  1  0  0  0  0
  1 13  2  0  0  0  0
  2 13  1  0  0  0  0
  2 14  2  0  0  0  0
  3  4  2  0  0  0  0
  3  6  1  0  0  0  0
  4 14  1  0  0  0  0
  4 15  1  0  0  0  0
  5 15  1  0  0  0  0
  5 16  1  0  0  0  0
  5 17  2  0  0  0  0
  6 11  1  0  0  0  0
  7  8  1  0  0  0  0
  7  9  1  0  0  0  0
  8 10  1  0  0  0  0
  9 12  1  0  0  0  0
 10 12  1  0  0  0  0
 11 15  1  0  0  0  0
 12 16  1  0  0  0  0
  1 18  1  0  0  0  0
  2 19  1  0  0  0  0
  6 20  1  0  0  0  0
  6 21  1  0  0  0  0
  7 22  1  0  0  0  0
  7 23  1  0  0  0  0
  8 24  1  0  0  0  0
  8 25  1  0  0  0  0
  9 26  1  0  0  0  0
  9 27  1  0  0  0  0
 10 28  1  0  0  0  0
 10 29  1  0  0  0  0
 11 30  1  0  0  0  0
 11 31  1  0  0  0  0
 12 32  1  0  0  0  0
 16 33  1  0  0  0  0
M  END
> <HYBRID receptor title>
5S18(A) > WOY(A-201)

> <HYBRID receptor filename>
data/docking/5s18.oedu

> <HYBRID Chemgauss4 score>
-7.952410

> <HYBRID receptor title>
5S18(A) > WOY(A-201)

> <HYBRID receptor filename>
data/docking/5s18.oedu

> <Dock Type>
Hybrid

$$$$
MOL0179
  -OEChem-07032400353D

 37 39  0     0  0  0  0  0  0999 V2000
   -3.6825   14.9368    1.8268 C   0  0  0  0  0  0  0  0  0  0  0  0
   -1.5193   14.9624    1.0877 C   0  0  0  0  0  0  0  0  0  0  0  0
   -4.1174   14.7946    0.5338 C   0  0  0  0  0  0  0  0  0  0  0  0
   -3.1533   14.7434   -0.4538 C   0  0  0  0  0  0  0  0  0  0  0  0
   -3.0904   14.5121   -2.9082 C   0  0  0  0  0  0  0  0  0  0  0  0
   -5.4999   14.6824   -0.0026 C   0  0  0  0  0  0  0  0  0  0  0  0
    1.3697   16.4435   -4.2325 C   0  0  0  0  0  0  0  0  0  0  0  0
   -0.0712   16.9400   -4.3121 C   0  0  0  0  0  0  0  0  0  0  0  0
    1.4750   15.1246   -3.4737 C   0  0  0  0  0  0  0  0  0  0  0  0
   -1.0026   15.8775   -4.8945 C   0  0  0  0  0  0  0  0  0  0  0  0
    0.5446   14.0621   -4.0559 C   0  0  0  0  0  0  0  0  0  0  0  0
   -5.2382   14.5501   -1.5096 C   0  0  0  0  0  0  0  0  0  0  0  0
   -0.9139   14.5311   -4.1606 C   0  0  0  0  0  0  0  0  0  0  0  0
   -1.5883   14.5902   -2.7875 C   0  0  0  0  0  0  0  0  0  0  0  0
   -2.3721   15.0242    2.1374 N   0  0  0  0  0  0  0  0  0  0  0  0
   -1.8340   14.8246   -0.2175 N   0  0  0  0  0  0  0  0  0  0  0  0
   -3.7758   14.5961   -1.7087 N   0  0  0  0  0  0  0  0  0  0  0  0
   -3.6128   14.3830   -4.0163 O   0  0  0  0  0  0  0  0  0  0  0  0
   -4.3698   14.9847    2.6631 H   0  0  0  0  0  0  0  0  0  0  0  0
   -0.4639   15.0307    1.3234 H   0  0  0  0  0  0  0  0  0  0  0  0
   -6.0042   13.7948    0.3909 H   0  0  0  0  0  0  0  0  0  0  0  0
   -6.0831   15.5805    0.2207 H   0  0  0  0  0  0  0  0  0  0  0  0
    1.7731   16.3197   -5.2450 H   0  0  0  0  0  0  0  0  0  0  0  0
    1.9891   17.2012   -3.7347 H   0  0  0  0  0  0  0  0  0  0  0  0
   -0.4183   17.2257   -3.3128 H   0  0  0  0  0  0  0  0  0  0  0  0
   -0.1128   17.8420   -4.9350 H   0  0  0  0  0  0  0  0  0  0  0  0
    2.5100   14.7629   -3.5119 H   0  0  0  0  0  0  0  0  0  0  0  0
    1.2326   15.2867   -2.4173 H   0  0  0  0  0  0  0  0  0  0  0  0
   -2.0402   16.2521   -4.8609 H   0  0  0  0  0  0  0  0  0  0  0  0
   -0.7652   15.7366   -5.9620 H   0  0  0  0  0  0  0  0  0  0  0  0
    0.9138   13.7666   -5.0520 H   0  0  0  0  0  0  0  0  0  0  0  0
    0.5997   13.1545   -3.4302 H   0  0  0  0  0  0  0  0  0  0  0  0
   -5.6233   13.6032   -1.9040 H   0  0  0  0  0  0  0  0  0  0  0  0
   -5.7019   15.3677   -2.0726 H   0  0  0  0  0  0  0  0  0  0  0  0
   -1.4676   13.7813   -4.7626 H   0  0  0  0  0  0  0  0  0  0  0  0
   -1.2543   13.7638   -2.1620 H   0  0  0  0  0  0  0  0  0  0  0  0
   -1.3357   15.5241   -2.2856 H   0  0  0  0  0  0  0  0  0  0  0  0
  1  3  1  0  0  0  0
  1 15  2  0  0  0  0
  2 15  1  0  0  0  0
  2 16  2  0  0  0  0
  3  4  2  0  0  0  0
  3  6  1  0  0  0  0
  4 16  1  0  0  0  0
  4 17  1  0  0  0  0
  5 14  1  0  0  0  0
  5 17  1  0  0  0  0
  5 18  2  0  0  0  0
  6 12  1  0  0  0  0
  7  8  1  0  0  0  0
  7  9  1  0  0  0  0
  8 10  1  0  0  0  0
  9 11  1  0  0  0  0
 10 13  1  0  0  0  0
 11 13  1  0  0  0  0
 12 17  1  0  0  0  0
 13 14  1  0  0  0  0
  1 19  1  0  0  0  0
  2 20  1  0  0  0  0
  6 21  1  0  0  0  0
  6 22  1  0  0  0  0
  7 23  1  0  0  0  0
  7 24  1  0  0  0  0
  8 25  1  0  0  0  0
  8 26  1  0  0  0  0
  9 27  1  0  0  0  0
  9 28  1  0  0  0  0
 10 29  1  0  0  0  0
 10 30  1  0  0  0  0
 11 31  1  0  0  0  0
 11 32  1  0  0  0  0
 12 33  1  0  0  0  0
 12 34  1  0  0  0  0
 13 35  1  0  0  0  0
 14 36  1  0  0  0  0
 14 37  1  0  0  0  0
M  END
> <HYBRID receptor title>
5S18(A) > WOY(A-201)

> <HYBRID receptor filename>
data/docking/5s18.oedu

> <HYBRID Chemgauss4 score>
-7.876011

> <HYBRID receptor title>
5S18(A) > WOY(A-201)

> <HYBRID receptor filename>
data/docking/5s18.oedu

> <Dock Type>
Hybrid

$$$$
MOL0141
  -OEChem-07032400353D

 30 32  0     0  0  0  0  0  0999 V2000
   -0.0492   14.8466    1.0891 C   0  0  0  0  0  0  0  0  0  0  0  0
   -2.3817   14.8536   -0.1766 C   0  0  0  0  0  0  0  0  0  0  0  0
   -2.2822   15.2039    1.1593 C   0  0  0  0  0  0  0  0  0  0  0  0
   -1.2326   14.5048   -0.8358 C   0  0  0  0  0  0  0  0  0  0  0  0
   -0.6001   14.8684   -3.2139 C   0  0  0  0  0  0  0  0  0  0  0  0
   -3.7861   14.9607   -0.6542 C   0  0  0  0  0  0  0  0  0  0  0  0
   -0.8433   14.3655   -4.6248 C   0  0  0  0  0  0  0  0  0  0  0  0
   -2.3257   14.1345   -4.8455 C   0  0  0  0  0  0  0  0  0  0  0  0
   -2.8842   13.1143   -3.8611 C   0  0  0  0  0  0  0  0  0  0  0  0
   -4.5404   15.2567    0.6606 C   0  0  0  0  0  0  0  0  0  0  0  0
   -2.0062   12.9228   -2.6233 C   0  0  0  0  0  0  0  0  0  0  0  0
   -1.1180   15.2118    1.8292 N   0  0  0  0  0  0  0  0  0  0  0  0
   -0.0340   14.4893   -0.2173 N   0  0  0  0  0  0  0  0  0  0  0  0
   -3.5396   15.5404    1.6752 N   0  0  0  0  0  0  0  0  0  0  0  0
   -1.3061   14.1503   -2.2279 N   0  0  0  0  0  0  0  0  0  0  0  0
    0.2036   15.7809   -3.0245 O   0  0  0  0  0  0  0  0  0  0  0  0
    0.9074   14.8386    1.5980 H   0  0  0  0  0  0  0  0  0  0  0  0
   -3.8906   15.7916   -1.3592 H   0  0  0  0  0  0  0  0  0  0  0  0
   -4.1356   14.0290   -1.1085 H   0  0  0  0  0  0  0  0  0  0  0  0
   -0.4676   15.1088   -5.3099 H   0  0  0  0  0  0  0  0  0  0  0  0
   -0.3122   13.4365   -4.7556 H   0  0  0  0  0  0  0  0  0  0  0  0
   -2.8727   15.0893   -4.7428 H   0  0  0  0  0  0  0  0  0  0  0  0
   -2.5052   13.7882   -5.8812 H   0  0  0  0  0  0  0  0  0  0  0  0
   -3.9064   13.4151   -3.5468 H   0  0  0  0  0  0  0  0  0  0  0  0
   -3.0134   12.1379   -4.3719 H   0  0  0  0  0  0  0  0  0  0  0  0
   -5.2291   16.0996    0.5401 H   0  0  0  0  0  0  0  0  0  0  0  0
   -5.1308   14.3833    0.9623 H   0  0  0  0  0  0  0  0  0  0  0  0
   -2.6202   12.5810   -1.7938 H   0  0  0  0  0  0  0  0  0  0  0  0
   -1.2455   12.1739   -2.8365 H   0  0  0  0  0  0  0  0  0  0  0  0
   -3.7188   15.7876    2.6358 H   0  0  0  0  0  0  0  0  0  0  0  0
  1 12  1  0  0  0  0
  1 13  2  0  0  0  0
  2  3  1  0  0  0  0
  2  4  2  0  0  0  0
  2  6  1  0  0  0  0
  3 12  2  0  0  0  0
  3 14  1  0  0  0  0
  4 13  1  0  0  0  0
  4 15  1  0  0  0  0
  5  7  1  0  0  0  0
  5 15  1  0  0  0  0
  5 16  2  0  0  0  0
  6 10  1  0  0  0  0
  7  8  1  0  0  0  0
  8  9  1  0  0  0  0
  9 11  1  0  0  0  0
 10 14  1  0  0  0  0
 11 15  1  0  0  0  0
  1 17  1  0  0  0  0
  6 18  1  0  0  0  0
  6 19  1  0  0  0  0
  7 20  1  0  0  0  0
  7 21  1  0  0  0  0
  8 22  1  0  0  0  0
  8 23  1  0  0  0  0
  9 24  1  0  0  0  0
  9 25  1  0  0  0  0
 10 26  1  0  0  0  0
 10 27  1  0  0  0  0
 11 28  1  0  0  0  0
 11 29  1  0  0  0  0
 14 30  1  0  0  0  0
M  END
> <HYBRID receptor title>
5S18(A) > WOY(A-201)

> <HYBRID receptor filename>
data/docking/5s18.oedu

> <HYBRID Chemgauss4 score>
-7.867126

> <HYBRID receptor title>
5S18(A) > WOY(A-201)

> <HYBRID receptor filename>
data/docking/5s18.oedu

> <Dock Type>
Hybrid

$$$$
MOL0058
  -OEChem-07032400353D

 26 28  0     0  0  0  0  0  0999 V2000
   -2.0429   14.3079   -5.2754 C   0  0  0  0  0  0  0  0  0  0  0  0
   -2.4955   15.4815   -4.6726 C   0  0  0  0  0  0  0  0  0  0  0  0
   -1.5494   13.2664   -4.4897 C   0  0  0  0  0  0  0  0  0  0  0  0
   -2.4550   15.6136   -3.2845 C   0  0  0  0  0  0  0  0  0  0  0  0
   -1.5090   13.3985   -3.1016 C   0  0  0  0  0  0  0  0  0  0  0  0
   -0.6532   14.7543    0.8382 C   0  0  0  0  0  0  0  0  0  0  0  0
   -1.9616   14.5721   -2.4988 C   0  0  0  0  0  0  0  0  0  0  0  0
   -3.0413   14.9204   -0.3073 C   0  0  0  0  0  0  0  0  0  0  0  0
   -1.9191   14.7086   -1.0639 C   0  0  0  0  0  0  0  0  0  0  0  0
   -2.8852   15.0487    1.0626 C   0  0  0  0  0  0  0  0  0  0  0  0
   -4.4674   15.0753   -0.6997 C   0  0  0  0  0  0  0  0  0  0  0  0
   -5.1644   15.1358    0.6772 C   0  0  0  0  0  0  0  0  0  0  0  0
   -0.6933   14.6167   -0.5087 N   0  0  0  0  0  0  0  0  0  0  0  0
   -1.6917   14.9708    1.6737 N   0  0  0  0  0  0  0  0  0  0  0  0
   -4.1219   15.2698    1.6806 N   0  0  0  0  0  0  0  0  0  0  0  0
   -2.0738   14.2050   -6.3561 H   0  0  0  0  0  0  0  0  0  0  0  0
   -2.8804   16.2922   -5.2844 H   0  0  0  0  0  0  0  0  0  0  0  0
   -1.1968   12.3527   -4.9590 H   0  0  0  0  0  0  0  0  0  0  0  0
   -2.8109   16.5352   -2.8299 H   0  0  0  0  0  0  0  0  0  0  0  0
   -1.1221   12.5775   -2.5027 H   0  0  0  0  0  0  0  0  0  0  0  0
    0.3259   14.6832    1.2970 H   0  0  0  0  0  0  0  0  0  0  0  0
   -4.6156   16.0078   -1.2535 H   0  0  0  0  0  0  0  0  0  0  0  0
   -4.8265   14.2239   -1.2853 H   0  0  0  0  0  0  0  0  0  0  0  0
   -5.8690   15.9725    0.7271 H   0  0  0  0  0  0  0  0  0  0  0  0
   -5.7277   14.2123    0.8561 H   0  0  0  0  0  0  0  0  0  0  0  0
   -4.2603   15.3491    2.6758 H   0  0  0  0  0  0  0  0  0  0  0  0
  1  2  1  0  0  0  0
  1  3  2  0  0  0  0
  2  4  2  0  0  0  0
  3  5  1  0  0  0  0
  4  7  1  0  0  0  0
  5  7  2  0  0  0  0
  6 13  2  0  0  0  0
  6 14  1  0  0  0  0
  7  9  1  0  0  0  0
  8  9  2  0  0  0  0
  8 10  1  0  0  0  0
  8 11  1  0  0  0  0
  9 13  1  0  0  0  0
 10 14  2  0  0  0  0
 10 15  1  0  0  0  0
 11 12  1  0  0  0  0
 12 15  1  0  0  0  0
  1 16  1  0  0  0  0
  2 17  1  0  0  0  0
  3 18  1  0  0  0  0
  4 19  1  0  0  0  0
  5 20  1  0  0  0  0
  6 21  1  0  0  0  0
 11 22  1  0  0  0  0
 11 23  1  0  0  0  0
 12 24  1  0  0  0  0
 12 25  1  0  0  0  0
 15 26  1  0  0  0  0
M  END
> <HYBRID receptor title>
5S18(A) > WOY(A-201)

> <HYBRID receptor filename>
data/docking/5s18.oedu

> <HYBRID Chemgauss4 score>
-7.849794

> <HYBRID receptor title>
5S18(A) > WOY(A-201)

> <HYBRID receptor filename>
data/docking/5s18.oedu

> <Dock Type>
Hybrid

$$$$
MOL0034
  -OEChem-07032400353D

 22 23  0     1  0  0  0  0  0999 V2000
   -1.2519   14.5773   -0.8921 C   0  0  0  0  0  0  0  0  0  0  0  0
   -0.0682   14.4681    1.0596 C   0  0  0  0  0  0  0  0  0  0  0  0
   -2.3694   14.9375   -0.1836 C   0  0  0  0  0  0  0  0  0  0  0  0
   -2.2493   15.0540    1.1929 C   0  0  0  0  0  0  0  0  0  0  0  0
   -4.4937   15.3419    0.7363 C   0  0  0  0  0  0  0  0  0  0  0  0
   -3.7508   15.2958   -0.6248 C   0  0  2  0  0  0  0  0  0  0  0  0
   -5.8008   14.6946   -1.9505 C   0  0  0  0  0  0  0  0  0  0  0  0
   -4.3749   14.3079   -1.5977 C   0  0  0  0  0  0  0  0  0  0  0  0
   -0.0726   14.3281   -0.2868 N   0  0  0  0  0  0  0  0  0  0  0  0
   -1.1016   14.8252    1.8524 N   0  0  0  0  0  0  0  0  0  0  0  0
   -3.4713   15.4370    1.7652 N   0  0  0  0  0  0  0  0  0  0  0  0
   -1.2574   14.4803   -1.9710 H   0  0  0  0  0  0  0  0  0  0  0  0
    0.8737   14.2719    1.5579 H   0  0  0  0  0  0  0  0  0  0  0  0
   -5.1771   16.1962    0.7825 H   0  0  0  0  0  0  0  0  0  0  0  0
   -5.0834   14.4318    0.9014 H   0  0  0  0  0  0  0  0  0  0  0  0
   -3.7304   16.3001   -1.0657 H   0  0  0  0  0  0  0  0  0  0  0  0
   -5.8373   15.6937   -2.3972 H   0  0  0  0  0  0  0  0  0  0  0  0
   -6.4248   14.7006   -1.0516 H   0  0  0  0  0  0  0  0  0  0  0  0
   -6.2348   13.9845   -2.6614 H   0  0  0  0  0  0  0  0  0  0  0  0
   -4.3669   13.3071   -1.1539 H   0  0  0  0  0  0  0  0  0  0  0  0
   -3.7707   14.2659   -2.5104 H   0  0  0  0  0  0  0  0  0  0  0  0
   -3.6339   15.5112    2.7575 H   0  0  0  0  0  0  0  0  0  0  0  0
  1  3  1  0  0  0  0
  1  9  2  0  0  0  0
  2  9  1  0  0  0  0
  2 10  2  0  0  0  0
  3  4  2  0  0  0  0
  3  6  1  0  0  0  0
  4 10  1  0  0  0  0
  4 11  1  0  0  0  0
  5  6  1  0  0  0  0
  5 11  1  0  0  0  0
  6  8  1  0  0  0  0
  7  8  1  0  0  0  0
  1 12  1  0  0  0  0
  2 13  1  0  0  0  0
  5 14  1  0  0  0  0
  5 15  1  0  0  0  0
  6 16  1  0  0  0  0
  7 17  1  0  0  0  0
  7 18  1  0  0  0  0
  7 19  1  0  0  0  0
  8 20  1  0  0  0  0
  8 21  1  0  0  0  0
 11 22  1  0  0  0  0
M  END
> <HYBRID receptor title>
5S18(A) > WOY(A-201)

> <HYBRID receptor filename>
data/docking/5s18.oedu

> <HYBRID Chemgauss4 score>
-7.804242

> <HYBRID receptor title>
5S18(A) > WOY(A-201)

> <HYBRID receptor filename>
data/docking/5s18.oedu

> <Dock Type>
Hybrid

$$$$
MOL0174
  -OEChem-07032400353D

 33 35  0     0  0  0  0  0  0999 V2000
   -2.9857   14.8582    1.4228 C   0  0  0  0  0  0  0  0  0  0  0  0
   -0.7594   14.8937    0.9092 C   0  0  0  0  0  0  0  0  0  0  0  0
   -3.2880   14.9539    0.0888 C   0  0  0  0  0  0  0  0  0  0  0  0
   -2.2303   14.9922   -0.8016 C   0  0  0  0  0  0  0  0  0  0  0  0
   -2.0213   15.2566   -3.2952 C   0  0  0  0  0  0  0  0  0  0  0  0
   -4.6099   15.0113   -0.5917 C   0  0  0  0  0  0  0  0  0  0  0  0
    1.4929   12.8284   -3.8493 C   0  0  0  0  0  0  0  0  0  0  0  0
    1.5438   14.3521   -3.8827 C   0  0  0  0  0  0  0  0  0  0  0  0
    0.3413   12.3406   -2.9758 C   0  0  0  0  0  0  0  0  0  0  0  0
   -4.1864   15.3547   -2.0244 C   0  0  0  0  0  0  0  0  0  0  0  0
    0.2036   14.9483   -4.2984 C   0  0  0  0  0  0  0  0  0  0  0  0
   -0.9821   12.9708   -3.3964 C   0  0  0  0  0  0  0  0  0  0  0  0
   -1.7125   14.8241    1.8677 N   0  0  0  0  0  0  0  0  0  0  0  0
   -0.9427   14.9847   -0.4250 N   0  0  0  0  0  0  0  0  0  0  0  0
   -2.7361   15.1108   -2.1139 N   0  0  0  0  0  0  0  0  0  0  0  0
   -0.8974   14.4362   -3.4819 N   0  0  0  0  0  0  0  0  0  0  0  0
   -2.3748   16.0764   -4.1529 O   0  0  0  0  0  0  0  0  0  0  0  0
   -3.7533   14.8155    2.1856 H   0  0  0  0  0  0  0  0  0  0  0  0
    0.2682   14.8748    1.2532 H   0  0  0  0  0  0  0  0  0  0  0  0
   -5.1349   14.0541   -0.5442 H   0  0  0  0  0  0  0  0  0  0  0  0
   -5.2254   15.8061   -0.1618 H   0  0  0  0  0  0  0  0  0  0  0  0
    1.3800   12.4371   -4.8670 H   0  0  0  0  0  0  0  0  0  0  0  0
    2.4417   12.4386   -3.4590 H   0  0  0  0  0  0  0  0  0  0  0  0
    1.8289   14.7321   -2.8987 H   0  0  0  0  0  0  0  0  0  0  0  0
    2.3163   14.6700   -4.5894 H   0  0  0  0  0  0  0  0  0  0  0  0
    0.2643   11.2456   -3.0379 H   0  0  0  0  0  0  0  0  0  0  0  0
    0.5486   12.5838   -1.9251 H   0  0  0  0  0  0  0  0  0  0  0  0
   -4.7057   14.6804   -2.7116 H   0  0  0  0  0  0  0  0  0  0  0  0
   -4.4217   16.3884   -2.2970 H   0  0  0  0  0  0  0  0  0  0  0  0
    0.2150   16.0397   -4.1949 H   0  0  0  0  0  0  0  0  0  0  0  0
    0.0532   14.6895   -5.3482 H   0  0  0  0  0  0  0  0  0  0  0  0
   -1.3157   12.5484   -4.3500 H   0  0  0  0  0  0  0  0  0  0  0  0
   -1.7589   12.7440   -2.6558 H   0  0  0  0  0  0  0  0  0  0  0  0
  1  3  1  0  0  0  0
  1 13  2  0  0  0  0
  2 13  1  0  0  0  0
  2 14  2  0  0  0  0
  3  4  2  0  0  0  0
  3  6  1  0  0  0  0
  4 14  1  0  0  0  0
  4 15  1  0  0  0  0
  5 15  1  0  0  0  0
  5 16  1  0  0  0  0
  5 17  2  0  0  0  0
  6 10  1  0  0  0  0
  7  8  1  0  0  0  0
  7  9  1  0  0  0  0
  8 11  1  0  0  0  0
  9 12  1  0  0  0  0
 10 15  1  0  0  0  0
 11 16  1  0  0  0  0
 12 16  1  0  0  0  0
  1 18  1  0  0  0  0
  2 19  1  0  0  0  0
  6 20  1  0  0  0  0
  6 21  1  0  0  0  0
  7 22  1  0  0  0  0
  7 23  1  0  0  0  0
  8 24  1  0  0  0  0
  8 25  1  0  0  0  0
  9 26  1  0  0  0  0
  9 27  1  0  0  0  0
 10 28  1  0  0  0  0
 10 29  1  0  0  0  0
 11 30  1  0  0  0  0
 11 31  1  0  0  0  0
 12 32  1  0  0  0  0
 12 33  1  0  0  0  0
M  END
> <HYBRID receptor title>
5S18(A) > WOY(A-201)

> <HYBRID receptor filename>
data/docking/5s18.oedu

> <HYBRID Chemgauss4 score>
-7.780936

> <HYBRID receptor title>
5S18(A) > WOY(A-201)

> <HYBRID receptor filename>
data/docking/5s18.oedu

> <Dock Type>
Hybrid

$$$$
MOL0050
  -OEChem-07032400353D

 32 34  0     1  0  0  0  0  0999 V2000
   -0.4900   18.3562   -5.2018 C   0  0  0  0  0  0  0  0  0  0  0  0
    0.6956   17.8852   -4.6377 C   0  0  0  0  0  0  0  0  0  0  0  0
   -1.5621   17.4859   -5.3985 C   0  0  0  0  0  0  0  0  0  0  0  0
    0.8090   16.5443   -4.2701 C   0  0  0  0  0  0  0  0  0  0  0  0
   -1.4486   16.1450   -5.0309 C   0  0  0  0  0  0  0  0  0  0  0  0
   -2.1052   15.2410    0.8973 C   0  0  0  0  0  0  0  0  0  0  0  0
    0.0015   14.4999    0.4174 C   0  0  0  0  0  0  0  0  0  0  0  0
   -2.4770   14.9855   -0.3972 C   0  0  0  0  0  0  0  0  0  0  0  0
   -0.2631   15.6740   -4.4668 C   0  0  0  0  0  0  0  0  0  0  0  0
   -1.5188   14.4789   -1.2605 C   0  0  0  0  0  0  0  0  0  0  0  0
   -3.7716   15.1943   -1.0944 C   0  0  0  0  0  0  0  0  0  0  0  0
   -3.5169   14.4618   -2.4257 C   0  0  0  0  0  0  0  0  0  0  0  0
   -0.1407   14.2236   -4.0694 C   0  0  0  0  0  0  0  0  0  0  0  0
   -1.4728   13.6044   -3.6549 C   0  0  0  0  0  0  0  0  0  0  0  0
   -0.8541   15.0004    1.3389 N   0  0  0  0  0  0  0  0  0  0  0  0
   -0.2560   14.2201   -0.8780 N   0  0  0  0  0  0  0  0  0  0  0  0
   -2.0691   14.2875   -2.5596 N   0  0  2  0  0  0  0  0  0  0  0  0
   -0.5784   19.4001   -5.4881 H   0  0  0  0  0  0  0  0  0  0  0  0
    1.5303   18.5629   -4.4841 H   0  0  0  0  0  0  0  0  0  0  0  0
   -2.4852   17.8524   -5.8379 H   0  0  0  0  0  0  0  0  0  0  0  0
    1.7368   16.1865   -3.8314 H   0  0  0  0  0  0  0  0  0  0  0  0
   -2.2897   15.4748   -5.1871 H   0  0  0  0  0  0  0  0  0  0  0  0
   -2.7949   15.6487    1.6263 H   0  0  0  0  0  0  0  0  0  0  0  0
    1.0106   14.3024    0.7595 H   0  0  0  0  0  0  0  0  0  0  0  0
   -4.6103   14.7521   -0.5496 H   0  0  0  0  0  0  0  0  0  0  0  0
   -3.9465   16.2622   -1.2600 H   0  0  0  0  0  0  0  0  0  0  0  0
   -4.0024   13.4775   -2.4030 H   0  0  0  0  0  0  0  0  0  0  0  0
   -3.9312   15.0182   -3.2732 H   0  0  0  0  0  0  0  0  0  0  0  0
    0.3025   13.6492   -4.8930 H   0  0  0  0  0  0  0  0  0  0  0  0
    0.5680   14.1504   -3.2347 H   0  0  0  0  0  0  0  0  0  0  0  0
   -2.1833   13.6583   -4.4863 H   0  0  0  0  0  0  0  0  0  0  0  0
   -1.3629   12.5533   -3.3694 H   0  0  0  0  0  0  0  0  0  0  0  0
  1  2  1  0  0  0  0
  1  3  2  0  0  0  0
  2  4  2  0  0  0  0
  3  5  1  0  0  0  0
  4  9  1  0  0  0  0
  5  9  2  0  0  0  0
  6  8  1  0  0  0  0
  6 15  2  0  0  0  0
  7 15  1  0  0  0  0
  7 16  2  0  0  0  0
  8 10  2  0  0  0  0
  8 11  1  0  0  0  0
  9 13  1  0  0  0  0
 10 16  1  0  0  0  0
 10 17  1  0  0  0  0
 11 12  1  0  0  0  0
 12 17  1  0  0  0  0
 13 14  1  0  0  0  0
 14 17  1  0  0  0  0
  1 18  1  0  0  0  0
  2 19  1  0  0  0  0
  3 20  1  0  0  0  0
  4 21  1  0  0  0  0
  5 22  1  0  0  0  0
  6 23  1  0  0  0  0
  7 24  1  0  0  0  0
 11 25  1  0  0  0  0
 11 26  1  0  0  0  0
 12 27  1  0  0  0  0
 12 28  1  0  0  0  0
 13 29  1  0  0  0  0
 13 30  1  0  0  0  0
 14 31  1  0  0  0  0
 14 32  1  0  0  0  0
M  END
> <HYBRID receptor title>
5S18(A) > WOY(A-201)

> <HYBRID receptor filename>
data/docking/5s18.oedu

> <HYBRID Chemgauss4 score>
-7.702382

> <HYBRID receptor title>
5S18(A) > WOY(A-201)

> <HYBRID receptor filename>
data/docking/5s18.oedu

> <Dock Type>
Hybrid

$$$$
MOL0203
  -OEChem-07032400353D

 31 32  0     0  0  0  0  0  0999 V2000
   -3.0214   15.1853    1.5561 C   0  0  0  0  0  0  0  0  0  0  0  0
   -0.8125   14.8470    1.0732 C   0  0  0  0  0  0  0  0  0  0  0  0
   -3.3244   15.0772    0.2240 C   0  0  0  0  0  0  0  0  0  0  0  0
   -2.2742   14.8457   -0.6437 C   0  0  0  0  0  0  0  0  0  0  0  0
   -1.9892   14.5371   -3.0795 C   0  0  0  0  0  0  0  0  0  0  0  0
   -4.6368   15.1684   -0.4712 C   0  0  0  0  0  0  0  0  0  0  0  0
   -4.2294   14.9533   -1.9354 C   0  0  0  0  0  0  0  0  0  0  0  0
    0.1388   15.3426   -4.8127 C   0  0  0  0  0  0  0  0  0  0  0  0
   -0.2035   12.8712   -4.5222 C   0  0  0  0  0  0  0  0  0  0  0  0
    1.6484   14.0309   -3.2833 C   0  0  0  0  0  0  0  0  0  0  0  0
    0.2319   14.1665   -3.8410 C   0  0  0  0  0  0  0  0  0  0  0  0
   -1.7575   15.0736    2.0156 N   0  0  0  0  0  0  0  0  0  0  0  0
   -0.9944   14.7231   -0.2577 N   0  0  0  0  0  0  0  0  0  0  0  0
   -2.7677   14.7629   -1.9576 N   0  0  0  0  0  0  0  0  0  0  0  0
   -2.4117   14.4625   -4.2302 O   0  0  0  0  0  0  0  0  0  0  0  0
   -0.6660   14.4040   -2.7510 O   0  0  0  0  0  0  0  0  0  0  0  0
   -3.7817   15.3659    2.3066 H   0  0  0  0  0  0  0  0  0  0  0  0
    0.2064   14.7547    1.4300 H   0  0  0  0  0  0  0  0  0  0  0  0
   -5.3186   14.3834   -0.1307 H   0  0  0  0  0  0  0  0  0  0  0  0
   -5.0906   16.1533   -0.3270 H   0  0  0  0  0  0  0  0  0  0  0  0
   -4.7093   14.0681   -2.3680 H   0  0  0  0  0  0  0  0  0  0  0  0
   -4.4839   15.8161   -2.5613 H   0  0  0  0  0  0  0  0  0  0  0  0
    0.4501   16.2745   -4.3289 H   0  0  0  0  0  0  0  0  0  0  0  0
    0.7651   15.1851   -5.6963 H   0  0  0  0  0  0  0  0  0  0  0  0
   -0.8949   15.4947   -5.1412 H   0  0  0  0  0  0  0  0  0  0  0  0
   -0.1383   12.0248   -3.8287 H   0  0  0  0  0  0  0  0  0  0  0  0
   -1.2304   12.9355   -4.8952 H   0  0  0  0  0  0  0  0  0  0  0  0
    0.4566   12.6325   -5.3639 H   0  0  0  0  0  0  0  0  0  0  0  0
    1.7285   13.1913   -2.5852 H   0  0  0  0  0  0  0  0  0  0  0  0
    2.3738   13.8796   -4.0909 H   0  0  0  0  0  0  0  0  0  0  0  0
    1.9509   14.9464   -2.7629 H   0  0  0  0  0  0  0  0  0  0  0  0
  1  3  1  0  0  0  0
  1 12  2  0  0  0  0
  2 12  1  0  0  0  0
  2 13  2  0  0  0  0
  3  4  2  0  0  0  0
  3  6  1  0  0  0  0
  4 13  1  0  0  0  0
  4 14  1  0  0  0  0
  5 14  1  0  0  0  0
  5 15  2  0  0  0  0
  5 16  1  0  0  0  0
  6  7  1  0  0  0  0
  7 14  1  0  0  0  0
  8 11  1  0  0  0  0
  9 11  1  0  0  0  0
 10 11  1  0  0  0  0
 11 16  1  0  0  0  0
  1 17  1  0  0  0  0
  2 18  1  0  0  0  0
  6 19  1  0  0  0  0
  6 20  1  0  0  0  0
  7 21  1  0  0  0  0
  7 22  1  0  0  0  0
  8 23  1  0  0  0  0
  8 24  1  0  0  0  0
  8 25  1  0  0  0  0
  9 26  1  0  0  0  0
  9 27  1  0  0  0  0
  9 28  1  0  0  0  0
 10 29  1  0  0  0  0
 10 30  1  0  0  0  0
 10 31  1  0  0  0  0
M  END
> <HYBRID receptor title>
5S18(A) > WOY(A-201)

> <HYBRID receptor filename>
data/docking/5s18.oedu

> <HYBRID Chemgauss4 score>
-7.661080

> <HYBRID receptor title>
5S18(A) > WOY(A-201)

> <HYBRID receptor filename>
data/docking/5s18.oedu

> <Dock Type>
Hybrid

$$$$
MOL0085
  -OEChem-07032400353D

 25 26  0     1  0  0  0  0  0999 V2000
   -2.8758   15.1971    1.4103 C   0  0  0  0  0  0  0  0  0  0  0  0
   -0.6546   14.9107    0.9610 C   0  0  0  0  0  0  0  0  0  0  0  0
   -3.1549   15.0252    0.0792 C   0  0  0  0  0  0  0  0  0  0  0  0
   -2.0939   14.8017   -0.7837 C   0  0  0  0  0  0  0  0  0  0  0  0
   -4.4445   15.0716   -0.6560 C   0  0  0  0  0  0  0  0  0  0  0  0
   -4.0183   14.5520   -2.0424 C   0  0  0  0  0  0  0  0  0  0  0  0
   -0.3516   14.6477   -3.1845 C   0  0  0  0  0  0  0  0  0  0  0  0
   -1.8147   14.2248   -3.2512 C   0  0  0  0  0  0  0  0  0  0  0  0
    0.4515   14.2174   -4.3956 C   0  0  0  0  0  0  0  0  0  0  0  0
   -1.6154   15.1403    1.8860 N   0  0  0  0  0  0  0  0  0  0  0  0
   -0.8168   14.7359   -0.3679 N   0  0  0  0  0  0  0  0  0  0  0  0
   -2.5601   14.6604   -2.1215 N   0  0  2  0  0  0  0  0  0  0  0  0
    1.7404   14.6075   -4.2676 F   0  0  0  0  0  0  0  0  0  0  0  0
    0.4462   12.8770   -4.5513 F   0  0  0  0  0  0  0  0  0  0  0  0
   -0.0313   14.7720   -5.5278 F   0  0  0  0  0  0  0  0  0  0  0  0
   -3.6508   15.3879    2.1426 H   0  0  0  0  0  0  0  0  0  0  0  0
    0.3630   14.8631    1.3303 H   0  0  0  0  0  0  0  0  0  0  0  0
   -5.2018   14.4257   -0.2032 H   0  0  0  0  0  0  0  0  0  0  0  0
   -4.8105   16.1015   -0.7172 H   0  0  0  0  0  0  0  0  0  0  0  0
   -4.3123   13.4995   -2.1473 H   0  0  0  0  0  0  0  0  0  0  0  0
   -4.5038   15.1152   -2.8465 H   0  0  0  0  0  0  0  0  0  0  0  0
   -0.3045   15.7401   -3.1079 H   0  0  0  0  0  0  0  0  0  0  0  0
    0.1154   14.2401   -2.2800 H   0  0  0  0  0  0  0  0  0  0  0  0
   -1.9123   13.1371   -3.3184 H   0  0  0  0  0  0  0  0  0  0  0  0
   -2.2899   14.6633   -4.1344 H   0  0  0  0  0  0  0  0  0  0  0  0
  1  3  1  0  0  0  0
  1 10  2  0  0  0  0
  2 10  1  0  0  0  0
  2 11  2  0  0  0  0
  3  4  2  0  0  0  0
  3  5  1  0  0  0  0
  4 11  1  0  0  0  0
  4 12  1  0  0  0  0
  5  6  1  0  0  0  0
  6 12  1  0  0  0  0
  7  8  1  0  0  0  0
  7  9  1  0  0  0  0
  8 12  1  0  0  0  0
  9 13  1  0  0  0  0
  9 14  1  0  0  0  0
  9 15  1  0  0  0  0
  1 16  1  0  0  0  0
  2 17  1  0  0  0  0
  5 18  1  0  0  0  0
  5 19  1  0  0  0  0
  6 20  1  0  0  0  0
  6 21  1  0  0  0  0
  7 22  1  0  0  0  0
  7 23  1  0  0  0  0
  8 24  1  0  0  0  0
  8 25  1  0  0  0  0
M  END
> <HYBRID receptor title>
5S18(A) > WOY(A-201)

> <HYBRID receptor filename>
data/docking/5s18.oedu

> <HYBRID Chemgauss4 score>
-7.657896

> <HYBRID receptor title>
5S18(A) > WOY(A-201)

> <HYBRID receptor filename>
data/docking/5s18.oedu

> <Dock Type>
Hybrid

$$$$
MOL0100
  -OEChem-07032400353D

 25 26  0     1  0  0  0  0  0999 V2000
   -0.9963   14.8274   -0.9175 C   0  0  0  0  0  0  0  0  0  0  0  0
    0.2368   14.8594    1.0062 C   0  0  0  0  0  0  0  0  0  0  0  0
   -2.1398   14.9799   -0.1762 C   0  0  0  0  0  0  0  0  0  0  0  0
   -2.0067   15.0763    1.2007 C   0  0  0  0  0  0  0  0  0  0  0  0
   -4.2784   15.0052    0.7976 C   0  0  0  0  0  0  0  0  0  0  0  0
   -3.5716   15.1192   -0.5787 C   0  0  2  0  0  0  0  0  0  0  0  0
   -4.0922   13.3573   -3.9855 C   0  0  0  0  0  0  0  0  0  0  0  0
   -4.0499   14.0699   -1.5696 C   0  0  0  0  0  0  0  0  0  0  0  0
   -3.5902   14.3915   -2.9904 C   0  0  0  0  0  0  0  0  0  0  0  0
    0.2223   14.7580   -0.3437 N   0  0  0  0  0  0  0  0  0  0  0  0
   -0.8212   15.0203    1.8299 N   0  0  0  0  0  0  0  0  0  0  0  0
   -3.2604   15.2380    1.8086 N   0  0  0  0  0  0  0  0  0  0  0  0
   -1.0124   14.7607   -1.9986 H   0  0  0  0  0  0  0  0  0  0  0  0
    1.2101   14.8063    1.4794 H   0  0  0  0  0  0  0  0  0  0  0  0
   -5.0908   15.7345    0.8840 H   0  0  0  0  0  0  0  0  0  0  0  0
   -4.7076   14.0067    0.9456 H   0  0  0  0  0  0  0  0  0  0  0  0
   -3.7262   16.1252   -0.9881 H   0  0  0  0  0  0  0  0  0  0  0  0
   -5.1854   13.3077   -3.9618 H   0  0  0  0  0  0  0  0  0  0  0  0
   -3.7017   12.3631   -3.7478 H   0  0  0  0  0  0  0  0  0  0  0  0
   -3.7857   13.6127   -5.0053 H   0  0  0  0  0  0  0  0  0  0  0  0
   -5.1442   14.0156   -1.5359 H   0  0  0  0  0  0  0  0  0  0  0  0
   -3.6670   13.0886   -1.2669 H   0  0  0  0  0  0  0  0  0  0  0  0
   -2.4952   14.4261   -3.0292 H   0  0  0  0  0  0  0  0  0  0  0  0
   -3.9562   15.3818   -3.2856 H   0  0  0  0  0  0  0  0  0  0  0  0
   -3.4085   15.2570    2.8058 H   0  0  0  0  0  0  0  0  0  0  0  0
  1  3  1  0  0  0  0
  1 10  2  0  0  0  0
  2 10  1  0  0  0  0
  2 11  2  0  0  0  0
  3  4  2  0  0  0  0
  3  6  1  0  0  0  0
  4 11  1  0  0  0  0
  4 12  1  0  0  0  0
  5  6  1  0  0  0  0
  5 12  1  0  0  0  0
  6  8  1  0  0  0  0
  7  9  1  0  0  0  0
  8  9  1  0  0  0  0
  1 13  1  0  0  0  0
  2 14  1  0  0  0  0
  5 15  1  0  0  0  0
  5 16  1  0  0  0  0
  6 17  1  0  0  0  0
  7 18  1  0  0  0  0
  7 19  1  0  0  0  0
  7 20  1  0  0  0  0
  8 21  1  0  0  0  0
  8 22  1  0  0  0  0
  9 23  1  0  0  0  0
  9 24  1  0  0  0  0
 12 25  1  0  0  0  0
M  END
> <HYBRID receptor title>
5S18(A) > WOY(A-201)

> <HYBRID receptor filename>
data/docking/5s18.oedu

> <HYBRID Chemgauss4 score>
-7.613770

> <HYBRID receptor title>
5S18(A) > WOY(A-201)

> <HYBRID receptor filename>
data/docking/5s18.oedu

> <Dock Type>
Hybrid

$$$$
MOL0142
  -OEChem-07032400353D

 25 26  0     1  0  0  0  0  0999 V2000
   -2.3868   14.9790    1.1845 C   0  0  0  0  0  0  0  0  0  0  0  0
   -0.1545   14.5161    1.0353 C   0  0  0  0  0  0  0  0  0  0  0  0
   -2.4871   14.8786   -0.1788 C   0  0  0  0  0  0  0  0  0  0  0  0
   -1.3400   14.5732   -0.8941 C   0  0  0  0  0  0  0  0  0  0  0  0
   -3.6625   15.0058   -1.0771 C   0  0  0  0  0  0  0  0  0  0  0  0
   -2.9832   15.0178   -2.4605 C   0  0  0  0  0  0  0  0  0  0  0  0
   -0.6918   14.4052   -3.3543 C   0  0  0  0  0  0  0  0  0  0  0  0
   -0.8629   13.1170   -4.1388 C   0  0  0  0  0  0  0  0  0  0  0  0
   -0.6483   11.8827   -3.3001 C   0  0  0  0  0  0  0  0  0  0  0  0
   -1.2140   14.8036    1.8267 N   0  0  0  0  0  0  0  0  0  0  0  0
   -0.1441   14.3857   -0.3090 N   0  0  0  0  0  0  0  0  0  0  0  0
   -1.6267   14.4938   -2.2871 N   0  0  1  0  0  0  0  0  0  0  0  0
   -2.1100   13.0716   -4.6720 F   0  0  0  0  0  0  0  0  0  0  0  0
    0.0109   13.0975   -5.1769 F   0  0  0  0  0  0  0  0  0  0  0  0
   -1.5231   11.8297   -2.2731 F   0  0  0  0  0  0  0  0  0  0  0  0
    0.5985   11.8682   -2.7807 F   0  0  0  0  0  0  0  0  0  0  0  0
   -0.8018   10.7604   -4.0336 F   0  0  0  0  0  0  0  0  0  0  0  0
   -3.2410   15.2048    1.8112 H   0  0  0  0  0  0  0  0  0  0  0  0
    0.7945   14.3761    1.5382 H   0  0  0  0  0  0  0  0  0  0  0  0
   -4.3515   14.1624   -0.9784 H   0  0  0  0  0  0  0  0  0  0  0  0
   -4.1858   15.9485   -0.8878 H   0  0  0  0  0  0  0  0  0  0  0  0
   -3.5398   14.3691   -3.1492 H   0  0  0  0  0  0  0  0  0  0  0  0
   -2.9693   16.0253   -2.8895 H   0  0  0  0  0  0  0  0  0  0  0  0
   -0.8546   15.2782   -3.9939 H   0  0  0  0  0  0  0  0  0  0  0  0
    0.3052   14.4658   -2.9080 H   0  0  0  0  0  0  0  0  0  0  0  0
  1  3  1  0  0  0  0
  1 10  2  0  0  0  0
  2 10  1  0  0  0  0
  2 11  2  0  0  0  0
  3  4  2  0  0  0  0
  3  5  1  0  0  0  0
  4 11  1  0  0  0  0
  4 12  1  0  0  0  0
  5  6  1  0  0  0  0
  6 12  1  0  0  0  0
  7  8  1  0  0  0  0
  7 12  1  0  0  0  0
  8  9  1  0  0  0  0
  8 13  1  0  0  0  0
  8 14  1  0  0  0  0
  9 15  1  0  0  0  0
  9 16  1  0  0  0  0
  9 17  1  0  0  0  0
  1 18  1  0  0  0  0
  2 19  1  0  0  0  0
  5 20  1  0  0  0  0
  5 21  1  0  0  0  0
  6 22  1  0  0  0  0
  6 23  1  0  0  0  0
  7 24  1  0  0  0  0
  7 25  1  0  0  0  0
M  END
> <HYBRID receptor title>
5S18(A) > WOY(A-201)

> <HYBRID receptor filename>
data/docking/5s18.oedu

> <HYBRID Chemgauss4 score>
-7.606417

> <HYBRID receptor title>
5S18(A) > WOY(A-201)

> <HYBRID receptor filename>
data/docking/5s18.oedu

> <Dock Type>
Hybrid

$$$$
MOL0093
  -OEChem-07032400353D

 16 17  0     0  0  0  0  0  0999 V2000
   -0.2563   14.8468    1.0801 C   0  0  0  0  0  0  0  0  0  0  0  0
   -2.6274   14.8946   -0.1108 C   0  0  0  0  0  0  0  0  0  0  0  0
   -2.5032   15.0412    1.2605 C   0  0  0  0  0  0  0  0  0  0  0  0
   -1.4827   14.7278   -0.8446 C   0  0  0  0  0  0  0  0  0  0  0  0
   -4.0514   14.9812   -0.5309 C   0  0  0  0  0  0  0  0  0  0  0  0
   -4.7764   15.0213    0.8323 C   0  0  0  0  0  0  0  0  0  0  0  0
   -1.3192   15.0227    1.8943 N   0  0  0  0  0  0  0  0  0  0  0  0
   -0.2647   14.6964   -0.2660 N   0  0  0  0  0  0  0  0  0  0  0  0
   -3.7601   15.2109    1.8535 N   0  0  0  0  0  0  0  0  0  0  0  0
   -1.5365   14.5186   -2.9216 I   0  0  0  0  0  0  0  0  0  0  0  0
    0.7161   14.8241    1.5576 H   0  0  0  0  0  0  0  0  0  0  0  0
   -4.2350   15.9022   -1.0935 H   0  0  0  0  0  0  0  0  0  0  0  0
   -4.3674   14.1091   -1.1105 H   0  0  0  0  0  0  0  0  0  0  0  0
   -5.5191   15.8253    0.8616 H   0  0  0  0  0  0  0  0  0  0  0  0
   -5.3003   14.0746    1.0094 H   0  0  0  0  0  0  0  0  0  0  0  0
   -3.9210   15.2919    2.8452 H   0  0  0  0  0  0  0  0  0  0  0  0
  1  7  1  0  0  0  0
  1  8  2  0  0  0  0
  2  3  1  0  0  0  0
  2  4  2  0  0  0  0
  2  5  1  0  0  0  0
  3  7  2  0  0  0  0
  3  9  1  0  0  0  0
  4  8  1  0  0  0  0
  4 10  1  0  0  0  0
  5  6  1  0  0  0  0
  6  9  1  0  0  0  0
  1 11  1  0  0  0  0
  5 12  1  0  0  0  0
  5 13  1  0  0  0  0
  6 14  1  0  0  0  0
  6 15  1  0  0  0  0
  9 16  1  0  0  0  0
M  END
> <HYBRID receptor title>
5S18(A) > WOY(A-201)

> <HYBRID receptor filename>
data/docking/5s18.oedu

> <HYBRID Chemgauss4 score>
-7.578647

> <HYBRID receptor title>
5S18(A) > WOY(A-201)

> <HYBRID receptor filename>
data/docking/5s18.oedu

> <Dock Type>
Hybrid

$$$$
MOL0099
  -OEChem-07032400353D

 27 29  0     0  0  0  0  0  0999 V2000
    0.2373   14.7216    1.2469 C   0  0  0  0  0  0  0  0  0  0  0  0
   -2.0351   14.9497   -0.1046 C   0  0  0  0  0  0  0  0  0  0  0  0
   -1.9711   15.2133    1.2533 C   0  0  0  0  0  0  0  0  0  0  0  0
   -0.8824   14.5693   -0.7395 C   0  0  0  0  0  0  0  0  0  0  0  0
    0.1374   13.9142   -2.9419 C   0  0  0  0  0  0  0  0  0  0  0  0
   -3.4091   15.1727   -0.6283 C   0  0  0  0  0  0  0  0  0  0  0  0
    0.4559   12.7965   -5.2292 C   0  0  0  0  0  0  0  0  0  0  0  0
   -0.9118   12.4210   -4.7436 C   0  0  0  0  0  0  0  0  0  0  0  0
   -4.1990   15.4370    0.6725 C   0  0  0  0  0  0  0  0  0  0  0  0
   -0.3157   13.7283   -4.3683 C   0  0  0  0  0  0  0  0  0  0  0  0
   -0.8378   15.1086    1.9665 N   0  0  0  0  0  0  0  0  0  0  0  0
    0.2859   14.4421   -0.0776 N   0  0  0  0  0  0  0  0  0  0  0  0
   -3.2265   15.5968    1.7403 N   0  0  0  0  0  0  0  0  0  0  0  0
   -0.9174   14.3106   -2.1132 N   0  0  0  0  0  0  0  0  0  0  0  0
    1.3054   13.7152   -2.6229 O   0  0  0  0  0  0  0  0  0  0  0  0
    1.1694   14.6235    1.7907 H   0  0  0  0  0  0  0  0  0  0  0  0
   -3.4337   16.0488   -1.2840 H   0  0  0  0  0  0  0  0  0  0  0  0
   -3.7947   14.2933   -1.1522 H   0  0  0  0  0  0  0  0  0  0  0  0
    1.3011   12.2554   -4.8214 H   0  0  0  0  0  0  0  0  0  0  0  0
    0.5630   13.0747   -6.2706 H   0  0  0  0  0  0  0  0  0  0  0  0
   -1.7254   12.4460   -5.4583 H   0  0  0  0  0  0  0  0  0  0  0  0
   -0.9847   11.6272   -4.0101 H   0  0  0  0  0  0  0  0  0  0  0  0
   -4.8299   16.3271    0.5778 H   0  0  0  0  0  0  0  0  0  0  0  0
   -4.8531   14.5860    0.8967 H   0  0  0  0  0  0  0  0  0  0  0  0
   -0.7127   14.6251   -4.7922 H   0  0  0  0  0  0  0  0  0  0  0  0
   -3.4308   15.7974    2.7067 H   0  0  0  0  0  0  0  0  0  0  0  0
   -1.8270   14.4246   -2.5716 H   0  0  0  0  0  0  0  0  0  0  0  0
  1 11  1  0  0  0  0
  1 12  2  0  0  0  0
  2  3  1  0  0  0  0
  2  4  2  0  0  0  0
  2  6  1  0  0  0  0
  3 11  2  0  0  0  0
  3 13  1  0  0  0  0
  4 12  1  0  0  0  0
  4 14  1  0  0  0  0
  5 10  1  0  0  0  0
  5 14  1  0  0  0  0
  5 15  2  0  0  0  0
  6  9  1  0  0  0  0
  7  8  1  0  0  0  0
  7 10  1  0  0  0  0
  8 10  1  0  0  0  0
  9 13  1  0  0  0  0
  1 16  1  0  0  0  0
  6 17  1  0  0  0  0
  6 18  1  0  0  0  0
  7 19  1  0  0  0  0
  7 20  1  0  0  0  0
  8 21  1  0  0  0  0
  8 22  1  0  0  0  0
  9 23  1  0  0  0  0
  9 24  1  0  0  0  0
 10 25  1  0  0  0  0
 13 26  1  0  0  0  0
 14 27  1  0  0  0  0
M  END
> <HYBRID receptor title>
5S18(A) > WOY(A-201)

> <HYBRID receptor filename>
data/docking/5s18.oedu

> <HYBRID Chemgauss4 score>
-7.577908

> <HYBRID receptor title>
5S18(A) > WOY(A-201)

> <HYBRID receptor filename>
data/docking/5s18.oedu

> <Dock Type>
Hybrid

$$$$
MOL0214
  -OEChem-07032400353D

 26 28  0     0  0  0  0  0  0999 V2000
   -2.7804   14.9539   -3.3856 C   0  0  0  0  0  0  0  0  0  0  0  0
   -1.6462   12.8634   -2.9601 C   0  0  0  0  0  0  0  0  0  0  0  0
   -2.9679   14.5805   -4.7165 C   0  0  0  0  0  0  0  0  0  0  0  0
   -1.8337   12.4900   -4.2909 C   0  0  0  0  0  0  0  0  0  0  0  0
   -0.4584   14.9300    0.5623 C   0  0  0  0  0  0  0  0  0  0  0  0
   -2.1196   14.0951   -2.5075 C   0  0  0  0  0  0  0  0  0  0  0  0
   -2.9670   14.7542   -0.2855 C   0  0  0  0  0  0  0  0  0  0  0  0
   -2.4946   13.3489   -5.1692 C   0  0  0  0  0  0  0  0  0  0  0  0
   -1.9250   14.4807   -1.1317 C   0  0  0  0  0  0  0  0  0  0  0  0
   -2.6666   15.1272    1.0138 C   0  0  0  0  0  0  0  0  0  0  0  0
   -4.4363   14.7545   -0.5157 C   0  0  0  0  0  0  0  0  0  0  0  0
   -4.9746   15.0118    0.9089 C   0  0  0  0  0  0  0  0  0  0  0  0
   -0.6406   14.5587   -0.7275 N   0  0  0  0  0  0  0  0  0  0  0  0
   -1.4089   15.2268    1.4745 N   0  0  0  0  0  0  0  0  0  0  0  0
   -3.8386   15.3789    1.7373 N   0  0  0  0  0  0  0  0  0  0  0  0
   -2.7260   12.8887   -6.8115 Cl  0  0  0  0  0  0  0  0  0  0  0  0
   -3.1556   15.9172   -3.0482 H   0  0  0  0  0  0  0  0  0  0  0  0
   -1.1297   12.1831   -2.2870 H   0  0  0  0  0  0  0  0  0  0  0  0
   -3.4850   15.2594   -5.3899 H   0  0  0  0  0  0  0  0  0  0  0  0
   -1.4601   11.5271   -4.6295 H   0  0  0  0  0  0  0  0  0  0  0  0
    0.5690   14.9974    0.8998 H   0  0  0  0  0  0  0  0  0  0  0  0
   -4.7201   15.5664   -1.1928 H   0  0  0  0  0  0  0  0  0  0  0  0
   -4.7910   13.7948   -0.9028 H   0  0  0  0  0  0  0  0  0  0  0  0
   -5.7331   15.8015    0.9081 H   0  0  0  0  0  0  0  0  0  0  0  0
   -5.4387   14.1019    1.3072 H   0  0  0  0  0  0  0  0  0  0  0  0
   -3.8686   15.6214    2.7152 H   0  0  0  0  0  0  0  0  0  0  0  0
  1  3  2  0  0  0  0
  1  6  1  0  0  0  0
  2  4  1  0  0  0  0
  2  6  2  0  0  0  0
  3  8  1  0  0  0  0
  4  8  2  0  0  0  0
  5 13  2  0  0  0  0
  5 14  1  0  0  0  0
  6  9  1  0  0  0  0
  7  9  2  0  0  0  0
  7 10  1  0  0  0  0
  7 11  1  0  0  0  0
  8 16  1  0  0  0  0
  9 13  1  0  0  0  0
 10 14  2  0  0  0  0
 10 15  1  0  0  0  0
 11 12  1  0  0  0  0
 12 15  1  0  0  0  0
  1 17  1  0  0  0  0
  2 18  1  0  0  0  0
  3 19  1  0  0  0  0
  4 20  1  0  0  0  0
  5 21  1  0  0  0  0
 11 22  1  0  0  0  0
 11 23  1  0  0  0  0
 12 24  1  0  0  0  0
 12 25  1  0  0  0  0
 15 26  1  0  0  0  0
M  END
> <HYBRID receptor title>
5S18(A) > WOY(A-201)

> <HYBRID receptor filename>
data/docking/5s18.oedu

> <HYBRID Chemgauss4 score>
-7.577705

> <HYBRID receptor title>
5S18(A) > WOY(A-201)

> <HYBRID receptor filename>
data/docking/5s18.oedu

> <Dock Type>
Hybrid

$$$$
MOL0091
  -OEChem-07032400353D

 19 20  0     0  0  0  0  0  0999 V2000
   -0.1217   14.5006    0.6732 C   0  0  0  0  0  0  0  0  0  0  0  0
   -2.4570   15.0934   -0.4394 C   0  0  0  0  0  0  0  0  0  0  0  0
   -1.4239   14.6151   -1.2013 C   0  0  0  0  0  0  0  0  0  0  0  0
   -2.2390   15.2597    0.9179 C   0  0  0  0  0  0  0  0  0  0  0  0
   -3.8319   15.5173   -0.8159 C   0  0  0  0  0  0  0  0  0  0  0  0
   -4.4623   15.7932    0.5668 C   0  0  0  0  0  0  0  0  0  0  0  0
   -1.5788   14.4209   -2.6695 C   0  0  0  0  0  0  0  0  0  0  0  0
   -0.2275   14.3026   -0.6626 N   0  0  0  0  0  0  0  0  0  0  0  0
   -1.0697   14.9705    1.5123 N   0  0  0  0  0  0  0  0  0  0  0  0
   -3.3862   15.7632    1.5429 N   0  0  0  0  0  0  0  0  0  0  0  0
   -2.8148   14.7603   -3.1439 F   0  0  0  0  0  0  0  0  0  0  0  0
   -1.3855   13.1244   -3.0532 F   0  0  0  0  0  0  0  0  0  0  0  0
   -0.6991   15.1562   -3.4138 F   0  0  0  0  0  0  0  0  0  0  0  0
    0.8349   14.2537    1.1183 H   0  0  0  0  0  0  0  0  0  0  0  0
   -3.8007   16.4294   -1.4203 H   0  0  0  0  0  0  0  0  0  0  0  0
   -4.3729   14.7281   -1.3461 H   0  0  0  0  0  0  0  0  0  0  0  0
   -4.9806   16.7575    0.5793 H   0  0  0  0  0  0  0  0  0  0  0  0
   -5.1962   15.0155    0.8082 H   0  0  0  0  0  0  0  0  0  0  0  0
   -3.4775   15.9215    2.5341 H   0  0  0  0  0  0  0  0  0  0  0  0
  1  8  2  0  0  0  0
  1  9  1  0  0  0  0
  2  3  2  0  0  0  0
  2  4  1  0  0  0  0
  2  5  1  0  0  0  0
  3  7  1  0  0  0  0
  3  8  1  0  0  0  0
  4  9  2  0  0  0  0
  4 10  1  0  0  0  0
  5  6  1  0  0  0  0
  6 10  1  0  0  0  0
  7 11  1  0  0  0  0
  7 12  1  0  0  0  0
  7 13  1  0  0  0  0
  1 14  1  0  0  0  0
  5 15  1  0  0  0  0
  5 16  1  0  0  0  0
  6 17  1  0  0  0  0
  6 18  1  0  0  0  0
 10 19  1  0  0  0  0
M  END
> <HYBRID receptor title>
5S18(A) > WOY(A-201)

> <HYBRID receptor filename>
data/docking/5s18.oedu

> <HYBRID Chemgauss4 score>
-7.546597

> <HYBRID receptor title>
5S18(A) > WOY(A-201)

> <HYBRID receptor filename>
data/docking/5s18.oedu

> <Dock Type>
Hybrid

$$$$
MOL0115
  -OEChem-07032400353D

 21 22  0     1  0  0  0  0  0999 V2000
    1.2899   15.4549   -3.6194 C   0  0  0  0  0  0  0  0  0  0  0  0
    0.2639   14.8316   -3.5916 C   0  0  0  0  0  0  0  0  0  0  0  0
   -2.6725   15.1807    0.8790 C   0  0  0  0  0  0  0  0  0  0  0  0
   -0.4436   14.6903    0.7833 C   0  0  0  0  0  0  0  0  0  0  0  0
   -2.7538   15.0209   -0.4801 C   0  0  0  0  0  0  0  0  0  0  0  0
   -1.5953   14.6937   -1.1664 C   0  0  0  0  0  0  0  0  0  0  0  0
   -3.9024   15.1759   -1.4086 C   0  0  0  0  0  0  0  0  0  0  0  0
   -3.3130   14.6056   -2.7129 C   0  0  0  0  0  0  0  0  0  0  0  0
   -0.9858   14.0684   -3.5616 C   0  0  0  0  0  0  0  0  0  0  0  0
   -1.5128   15.0153    1.5467 N   0  0  0  0  0  0  0  0  0  0  0  0
   -0.4105   14.5172   -0.5552 N   0  0  0  0  0  0  0  0  0  0  0  0
   -1.8566   14.5812   -2.5614 N   0  0  2  0  0  0  0  0  0  0  0  0
    2.2004   16.0079   -3.6443 H   0  0  0  0  0  0  0  0  0  0  0  0
   -3.5322   15.4482    1.4812 H   0  0  0  0  0  0  0  0  0  0  0  0
    0.4949   14.5550    1.3078 H   0  0  0  0  0  0  0  0  0  0  0  0
   -4.7769   14.6057   -1.0831 H   0  0  0  0  0  0  0  0  0  0  0  0
   -4.1593   16.2339   -1.5225 H   0  0  0  0  0  0  0  0  0  0  0  0
   -3.6811   13.5829   -2.8669 H   0  0  0  0  0  0  0  0  0  0  0  0
   -3.6132   15.2020   -3.5810 H   0  0  0  0  0  0  0  0  0  0  0  0
   -1.4857   14.1197   -4.5345 H   0  0  0  0  0  0  0  0  0  0  0  0
   -0.7807   13.0132   -3.3542 H   0  0  0  0  0  0  0  0  0  0  0  0
  1  2  3  0  0  0  0
  2  9  1  0  0  0  0
  3  5  1  0  0  0  0
  3 10  2  0  0  0  0
  4 10  1  0  0  0  0
  4 11  2  0  0  0  0
  5  6  2  0  0  0  0
  5  7  1  0  0  0  0
  6 11  1  0  0  0  0
  6 12  1  0  0  0  0
  7  8  1  0  0  0  0
  8 12  1  0  0  0  0
  9 12  1  0  0  0  0
  1 13  1  0  0  0  0
  3 14  1  0  0  0  0
  4 15  1  0  0  0  0
  7 16  1  0  0  0  0
  7 17  1  0  0  0  0
  8 18  1  0  0  0  0
  8 19  1  0  0  0  0
  9 20  1  0  0  0  0
  9 21  1  0  0  0  0
M  END
> <HYBRID receptor title>
5S18(A) > WOY(A-201)

> <HYBRID receptor filename>
data/docking/5s18.oedu

> <HYBRID Chemgauss4 score>
-7.497521

> <HYBRID receptor title>
5S18(A) > WOY(A-201)

> <HYBRID receptor filename>
data/docking/5s18.oedu

> <Dock Type>
Hybrid

$$$$
MOL0209
  -OEChem-07032400353D

 29 31  0     1  0  0  0  0  0999 V2000
   -0.6923   14.9220   -3.8999 C   0  0  0  0  0  0  0  0  0  0  0  0
   -0.8385   12.7395   -2.8736 C   0  0  0  0  0  0  0  0  0  0  0  0
    0.6963   14.8018   -3.9561 C   0  0  0  0  0  0  0  0  0  0  0  0
    0.5500   12.6193   -2.9299 C   0  0  0  0  0  0  0  0  0  0  0  0
   -3.0737   15.1216    1.4531 C   0  0  0  0  0  0  0  0  0  0  0  0
   -1.1097   14.2171    0.7166 C   0  0  0  0  0  0  0  0  0  0  0  0
   -3.5608   15.0767    0.1724 C   0  0  0  0  0  0  0  0  0  0  0  0
   -1.4596   13.8906   -3.3586 C   0  0  0  0  0  0  0  0  0  0  0  0
    1.3174   13.6507   -3.4711 C   0  0  0  0  0  0  0  0  0  0  0  0
   -2.7318   14.5805   -0.8210 C   0  0  0  0  0  0  0  0  0  0  0  0
   -4.8648   15.5161   -0.3860 C   0  0  0  0  0  0  0  0  0  0  0  0
   -4.7918   14.9357   -1.8113 C   0  0  0  0  0  0  0  0  0  0  0  0
   -2.9547   14.0193   -3.2979 C   0  0  0  0  0  0  0  0  0  0  0  0
   -1.8338   14.6883    1.7583 N   0  0  0  0  0  0  0  0  0  0  0  0
   -1.4866   14.1355   -0.5773 N   0  0  0  0  0  0  0  0  0  0  0  0
   -3.3882   14.6192   -2.0839 N   0  0  2  0  0  0  0  0  0  0  0  0
    3.0306   13.5035   -3.5409 Cl  0  0  0  0  0  0  0  0  0  0  0  0
   -1.1676   15.8223   -4.2801 H   0  0  0  0  0  0  0  0  0  0  0  0
   -1.4287   11.9311   -2.4503 H   0  0  0  0  0  0  0  0  0  0  0  0
    1.2818   15.6136   -4.3802 H   0  0  0  0  0  0  0  0  0  0  0  0
    1.0203   11.7169   -2.5481 H   0  0  0  0  0  0  0  0  0  0  0  0
   -3.6579   15.5074    2.2796 H   0  0  0  0  0  0  0  0  0  0  0  0
   -0.1111   13.8660    0.9484 H   0  0  0  0  0  0  0  0  0  0  0  0
   -5.7120   15.1045    0.1696 H   0  0  0  0  0  0  0  0  0  0  0  0
   -4.9200   16.6091   -0.4085 H   0  0  0  0  0  0  0  0  0  0  0  0
   -5.3902   14.0170   -1.8658 H   0  0  0  0  0  0  0  0  0  0  0  0
   -5.1922   15.6385   -2.5496 H   0  0  0  0  0  0  0  0  0  0  0  0
   -3.3233   14.6316   -4.1275 H   0  0  0  0  0  0  0  0  0  0  0  0
   -3.4368   13.0393   -3.3777 H   0  0  0  0  0  0  0  0  0  0  0  0
  1  3  2  0  0  0  0
  1  8  1  0  0  0  0
  2  4  1  0  0  0  0
  2  8  2  0  0  0  0
  3  9  1  0  0  0  0
  4  9  2  0  0  0  0
  5  7  1  0  0  0  0
  5 14  2  0  0  0  0
  6 14  1  0  0  0  0
  6 15  2  0  0  0  0
  7 10  2  0  0  0  0
  7 11  1  0  0  0  0
  8 13  1  0  0  0  0
  9 17  1  0  0  0  0
 10 15  1  0  0  0  0
 10 16  1  0  0  0  0
 11 12  1  0  0  0  0
 12 16  1  0  0  0  0
 13 16  1  0  0  0  0
  1 18  1  0  0  0  0
  2 19  1  0  0  0  0
  3 20  1  0  0  0  0
  4 21  1  0  0  0  0
  5 22  1  0  0  0  0
  6 23  1  0  0  0  0
 11 24  1  0  0  0  0
 11 25  1  0  0  0  0
 12 26  1  0  0  0  0
 12 27  1  0  0  0  0
 13 28  1  0  0  0  0
 13 29  1  0  0  0  0
M  END
> <HYBRID receptor title>
5S18(A) > WOY(A-201)

> <HYBRID receptor filename>
data/docking/5s18.oedu

> <HYBRID Chemgauss4 score>
-7.485598

> <HYBRID receptor title>
5S18(A) > WOY(A-201)

> <HYBRID receptor filename>
data/docking/5s18.oedu

> <Dock Type>
Hybrid

$$$$
MOL0125
  -OEChem-07032400353D

 26 28  0     1  0  0  0  0  0999 V2000
   -3.0189   14.7615    1.3857 C   0  0  0  0  0  0  0  0  0  0  0  0
   -0.8101   15.0252    0.8648 C   0  0  0  0  0  0  0  0  0  0  0  0
   -3.3010   14.5940    0.0550 C   0  0  0  0  0  0  0  0  0  0  0  0
   -2.2478   14.6464   -0.8443 C   0  0  0  0  0  0  0  0  0  0  0  0
   -4.5849   14.3156   -0.6370 C   0  0  0  0  0  0  0  0  0  0  0  0
    0.4646   14.4474   -4.2949 C   0  0  0  0  0  0  0  0  0  0  0  0
    0.4888   15.4575   -3.1819 C   0  0  0  0  0  0  0  0  0  0  0  0
   -4.1774   14.5009   -2.1118 C   0  0  0  0  0  0  0  0  0  0  0  0
   -0.5109   14.3349   -3.1559 C   0  0  0  0  0  0  0  0  0  0  0  0
   -1.9862   14.6191   -3.3804 C   0  0  0  0  0  0  0  0  0  0  0  0
   -1.7635   14.9858    1.8244 N   0  0  0  0  0  0  0  0  0  0  0  0
   -0.9762   14.8648   -0.4660 N   0  0  0  0  0  0  0  0  0  0  0  0
   -2.7156   14.4388   -2.1736 N   0  0  1  0  0  0  0  0  0  0  0  0
   -3.7876   14.7238    2.1481 H   0  0  0  0  0  0  0  0  0  0  0  0
    0.2024   15.2079    1.2033 H   0  0  0  0  0  0  0  0  0  0  0  0
   -4.9453   13.3008   -0.4473 H   0  0  0  0  0  0  0  0  0  0  0  0
   -5.3424   15.0492   -0.3433 H   0  0  0  0  0  0  0  0  0  0  0  0
    0.0987   14.7717   -5.2613 H   0  0  0  0  0  0  0  0  0  0  0  0
    1.2721   13.7270   -4.3395 H   0  0  0  0  0  0  0  0  0  0  0  0
    1.3130   15.4147   -2.4805 H   0  0  0  0  0  0  0  0  0  0  0  0
    0.1394   16.4585   -3.4030 H   0  0  0  0  0  0  0  0  0  0  0  0
   -4.6031   13.6891   -2.7158 H   0  0  0  0  0  0  0  0  0  0  0  0
   -4.5533   15.4477   -2.5138 H   0  0  0  0  0  0  0  0  0  0  0  0
   -0.3549   13.5392   -2.4374 H   0  0  0  0  0  0  0  0  0  0  0  0
   -2.1145   15.6483   -3.7309 H   0  0  0  0  0  0  0  0  0  0  0  0
   -2.3804   13.9502   -4.1524 H   0  0  0  0  0  0  0  0  0  0  0  0
  1  3  1  0  0  0  0
  1 11  2  0  0  0  0
  2 11  1  0  0  0  0
  2 12  2  0  0  0  0
  3  4  2  0  0  0  0
  3  5  1  0  0  0  0
  4 12  1  0  0  0  0
  4 13  1  0  0  0  0
  5  8  1  0  0  0  0
  6  7  1  0  0  0  0
  6  9  1  0  0  0  0
  7  9  1  0  0  0  0
  8 13  1  0  0  0  0
  9 10  1  0  0  0  0
 10 13  1  0  0  0  0
  1 14  1  0  0  0  0
  2 15  1  0  0  0  0
  5 16  1  0  0  0  0
  5 17  1  0  0  0  0
  6 18  1  0  0  0  0
  6 19  1  0  0  0  0
  7 20  1  0  0  0  0
  7 21  1  0  0  0  0
  8 22  1  0  0  0  0
  8 23  1  0  0  0  0
  9 24  1  0  0  0  0
 10 25  1  0  0  0  0
 10 26  1  0  0  0  0
M  END
> <HYBRID receptor title>
5S18(A) > WOY(A-201)

> <HYBRID receptor filename>
data/docking/5s18.oedu

> <HYBRID Chemgauss4 score>
-7.484763

> <HYBRID receptor title>
5S18(A) > WOY(A-201)

> <HYBRID receptor filename>
data/docking/5s18.oedu

> <Dock Type>
Hybrid

$$$$
MOL0112
  -OEChem-07032400353D

 31 32  0     1  0  0  0  0  0999 V2000
   -2.3548   15.2672    1.3789 C   0  0  0  0  0  0  0  0  0  0  0  0
   -0.1038   14.9375    1.1697 C   0  0  0  0  0  0  0  0  0  0  0  0
   -2.5018   15.0370    0.0357 C   0  0  0  0  0  0  0  0  0  0  0  0
   -1.3657   14.7423   -0.7013 C   0  0  0  0  0  0  0  0  0  0  0  0
   -3.7177   15.0059   -0.8159 C   0  0  0  0  0  0  0  0  0  0  0  0
   -3.0961   14.9356   -2.2244 C   0  0  0  0  0  0  0  0  0  0  0  0
    0.6001   12.5727   -2.0907 C   0  0  0  0  0  0  0  0  0  0  0  0
   -1.3662   11.9822   -3.5200 C   0  0  0  0  0  0  0  0  0  0  0  0
    0.6999   12.9103   -4.5768 C   0  0  0  0  0  0  0  0  0  0  0  0
   -0.8053   14.3931   -3.1640 C   0  0  0  0  0  0  0  0  0  0  0  0
   -0.2067   12.9788   -3.3359 C   0  0  0  0  0  0  0  0  0  0  0  0
   -1.1484   15.2269    1.9800 N   0  0  0  0  0  0  0  0  0  0  0  0
   -0.1376   14.6862   -0.1569 N   0  0  0  0  0  0  0  0  0  0  0  0
   -1.7012   14.5181   -2.0673 N   0  0  1  0  0  0  0  0  0  0  0  0
   -3.1971   15.4937    2.0214 H   0  0  0  0  0  0  0  0  0  0  0  0
    0.8717   14.9053    1.6393 H   0  0  0  0  0  0  0  0  0  0  0  0
   -4.3432   14.1324   -0.6120 H   0  0  0  0  0  0  0  0  0  0  0  0
   -4.2963   15.9262   -0.6869 H   0  0  0  0  0  0  0  0  0  0  0  0
   -3.6340   14.1925   -2.8273 H   0  0  0  0  0  0  0  0  0  0  0  0
   -3.1678   15.8988   -2.7409 H   0  0  0  0  0  0  0  0  0  0  0  0
    1.4403   13.2533   -1.9151 H   0  0  0  0  0  0  0  0  0  0  0  0
    1.0122   11.5640   -2.2002 H   0  0  0  0  0  0  0  0  0  0  0  0
   -0.0296   12.5798   -1.1940 H   0  0  0  0  0  0  0  0  0  0  0  0
   -1.9689   12.2355   -4.3994 H   0  0  0  0  0  0  0  0  0  0  0  0
   -2.0310   11.9816   -2.6486 H   0  0  0  0  0  0  0  0  0  0  0  0
   -0.9936   10.9602   -3.6549 H   0  0  0  0  0  0  0  0  0  0  0  0
    0.1521   13.1948   -5.4823 H   0  0  0  0  0  0  0  0  0  0  0  0
    1.5657   13.5748   -4.4848 H   0  0  0  0  0  0  0  0  0  0  0  0
    1.0851   11.8950   -4.7266 H   0  0  0  0  0  0  0  0  0  0  0  0
   -0.0140   15.1358   -3.0140 H   0  0  0  0  0  0  0  0  0  0  0  0
   -1.3657   14.6823   -4.0604 H   0  0  0  0  0  0  0  0  0  0  0  0
  1  3  1  0  0  0  0
  1 12  2  0  0  0  0
  2 12  1  0  0  0  0
  2 13  2  0  0  0  0
  3  4  2  0  0  0  0
  3  5  1  0  0  0  0
  4 13  1  0  0  0  0
  4 14  1  0  0  0  0
  5  6  1  0  0  0  0
  6 14  1  0  0  0  0
  7 11  1  0  0  0  0
  8 11  1  0  0  0  0
  9 11  1  0  0  0  0
 10 11  1  0  0  0  0
 10 14  1  0  0  0  0
  1 15  1  0  0  0  0
  2 16  1  0  0  0  0
  5 17  1  0  0  0  0
  5 18  1  0  0  0  0
  6 19  1  0  0  0  0
  6 20  1  0  0  0  0
  7 21  1  0  0  0  0
  7 22  1  0  0  0  0
  7 23  1  0  0  0  0
  8 24  1  0  0  0  0
  8 25  1  0  0  0  0
  8 26  1  0  0  0  0
  9 27  1  0  0  0  0
  9 28  1  0  0  0  0
  9 29  1  0  0  0  0
 10 30  1  0  0  0  0
 10 31  1  0  0  0  0
M  END
> <HYBRID receptor title>
5S18(A) > WOY(A-201)

> <HYBRID receptor filename>
data/docking/5s18.oedu

> <HYBRID Chemgauss4 score>
-7.482989

> <HYBRID receptor title>
5S18(A) > WOY(A-201)

> <HYBRID receptor filename>
data/docking/5s18.oedu

> <Dock Type>
Hybrid

$$$$
MOL0102
  -OEChem-07032400353D

 31 33  0     0  0  0  0  0  0999 V2000
   -2.4816   14.9662    1.5399 C   0  0  0  0  0  0  0  0  0  0  0  0
   -0.2500   15.0731    1.0728 C   0  0  0  0  0  0  0  0  0  0  0  0
   -2.7500   14.8435    0.1997 C   0  0  0  0  0  0  0  0  0  0  0  0
   -1.6748   14.8444   -0.6699 C   0  0  0  0  0  0  0  0  0  0  0  0
   -1.4365   14.6645   -3.1753 C   0  0  0  0  0  0  0  0  0  0  0  0
   -4.0578   14.7045   -0.4943 C   0  0  0  0  0  0  0  0  0  0  0  0
    1.4172   14.2974   -5.0718 C   0  0  0  0  0  0  0  0  0  0  0  0
    0.9352   12.9962   -4.4533 C   0  0  0  0  0  0  0  0  0  0  0  0
    0.6039   15.3924   -4.3819 C   0  0  0  0  0  0  0  0  0  0  0  0
    0.6723   13.3810   -3.0054 C   0  0  0  0  0  0  0  0  0  0  0  0
   -3.6179   14.6167   -1.9593 C   0  0  0  0  0  0  0  0  0  0  0  0
    0.0348   14.7667   -3.1008 C   0  0  0  0  0  0  0  0  0  0  0  0
   -1.2237   15.0843    2.0115 N   0  0  0  0  0  0  0  0  0  0  0  0
   -0.4011   14.9584   -0.2638 N   0  0  0  0  0  0  0  0  0  0  0  0
   -2.1482   14.7103   -1.9906 N   0  0  0  0  0  0  0  0  0  0  0  0
   -1.9788   14.5431   -4.2782 O   0  0  0  0  0  0  0  0  0  0  0  0
   -3.2682   14.9730    2.2853 H   0  0  0  0  0  0  0  0  0  0  0  0
    0.7668   15.1662    1.4352 H   0  0  0  0  0  0  0  0  0  0  0  0
   -4.5752   13.7936   -0.1797 H   0  0  0  0  0  0  0  0  0  0  0  0
   -4.6899   15.5800   -0.3211 H   0  0  0  0  0  0  0  0  0  0  0  0
    2.4860   14.4511   -4.9182 H   0  0  0  0  0  0  0  0  0  0  0  0
    1.2287   14.2981   -6.1472 H   0  0  0  0  0  0  0  0  0  0  0  0
    0.0177   12.6703   -4.9340 H   0  0  0  0  0  0  0  0  0  0  0  0
    1.6712   12.2050   -4.5318 H   0  0  0  0  0  0  0  0  0  0  0  0
    1.2688   16.2238   -4.1083 H   0  0  0  0  0  0  0  0  0  0  0  0
   -0.1720   15.7960   -5.0447 H   0  0  0  0  0  0  0  0  0  0  0  0
    0.0400   12.6492   -2.4996 H   0  0  0  0  0  0  0  0  0  0  0  0
    1.6198   13.4552   -2.4635 H   0  0  0  0  0  0  0  0  0  0  0  0
   -3.9264   13.6681   -2.4173 H   0  0  0  0  0  0  0  0  0  0  0  0
   -4.0421   15.4329   -2.5579 H   0  0  0  0  0  0  0  0  0  0  0  0
    0.2689   15.3787   -2.2194 H   0  0  0  0  0  0  0  0  0  0  0  0
  1  3  1  0  0  0  0
  1 13  2  0  0  0  0
  2 13  1  0  0  0  0
  2 14  2  0  0  0  0
  3  4  2  0  0  0  0
  3  6  1  0  0  0  0
  4 14  1  0  0  0  0
  4 15  1  0  0  0  0
  5 12  1  0  0  0  0
  5 15  1  0  0  0  0
  5 16  2  0  0  0  0
  6 11  1  0  0  0  0
  7  8  1  0  0  0  0
  7  9  1  0  0  0  0
  8 10  1  0  0  0  0
  9 12  1  0  0  0  0
 10 12  1  0  0  0  0
 11 15  1  0  0  0  0
  1 17  1  0  0  0  0
  2 18  1  0  0  0  0
  6 19  1  0  0  0  0
  6 20  1  0  0  0  0
  7 21  1  0  0  0  0
  7 22  1  0  0  0  0
  8 23  1  0  0  0  0
  8 24  1  0  0  0  0
  9 25  1  0  0  0  0
  9 26  1  0  0  0  0
 10 27  1  0  0  0  0
 10 28  1  0  0  0  0
 11 29  1  0  0  0  0
 11 30  1  0  0  0  0
 12 31  1  0  0  0  0
M  END
> <HYBRID receptor title>
5S18(A) > WOY(A-201)

> <HYBRID receptor filename>
data/docking/5s18.oedu

> <HYBRID Chemgauss4 score>
-7.468340

> <HYBRID receptor title>
5S18(A) > WOY(A-201)

> <HYBRID receptor filename>
data/docking/5s18.oedu

> <Dock Type>
Hybrid

$$$$
MOL0114
  -OEChem-07032400353D

 31 33  0     0  0  0  0  0  0999 V2000
   -2.3658   10.5595   -5.5983 C   0  0  0  0  0  0  0  0  0  0  0  0
   -3.2913   11.5125   -6.0238 C   0  0  0  0  0  0  0  0  0  0  0  0
   -1.3135   10.9344   -4.7631 C   0  0  0  0  0  0  0  0  0  0  0  0
   -3.1648   12.8399   -5.6139 C   0  0  0  0  0  0  0  0  0  0  0  0
   -1.1870   12.2618   -4.3532 C   0  0  0  0  0  0  0  0  0  0  0  0
   -2.7283   14.8332    1.6009 C   0  0  0  0  0  0  0  0  0  0  0  0
   -0.4706   14.9049    1.2483 C   0  0  0  0  0  0  0  0  0  0  0  0
   -2.9330   14.7750    0.2460 C   0  0  0  0  0  0  0  0  0  0  0  0
   -2.1125   13.2148   -4.7787 C   0  0  0  0  0  0  0  0  0  0  0  0
   -1.8132   14.7869   -0.5622 C   0  0  0  0  0  0  0  0  0  0  0  0
   -1.3271   14.7143   -2.9789 C   0  0  0  0  0  0  0  0  0  0  0  0
   -4.2016   14.6986   -0.5264 C   0  0  0  0  0  0  0  0  0  0  0  0
   -3.6836   14.6636   -1.9713 C   0  0  0  0  0  0  0  0  0  0  0  0
   -1.9764   14.6387   -4.3388 C   0  0  0  0  0  0  0  0  0  0  0  0
   -1.4916   14.8995    2.1373 N   0  0  0  0  0  0  0  0  0  0  0  0
   -0.5550   14.8518   -0.0977 N   0  0  0  0  0  0  0  0  0  0  0  0
   -2.2093   14.7214   -1.9123 N   0  0  0  0  0  0  0  0  0  0  0  0
   -0.0999   14.7641   -2.8848 O   0  0  0  0  0  0  0  0  0  0  0  0
   -2.4642    9.5261   -5.9174 H   0  0  0  0  0  0  0  0  0  0  0  0
   -4.1110   11.2206   -6.6738 H   0  0  0  0  0  0  0  0  0  0  0  0
   -0.5927   10.1927   -4.4319 H   0  0  0  0  0  0  0  0  0  0  0  0
   -3.8908   13.5753   -5.9507 H   0  0  0  0  0  0  0  0  0  0  0  0
   -0.3644   12.5442   -3.7016 H   0  0  0  0  0  0  0  0  0  0  0  0
   -3.5495   14.8276    2.3078 H   0  0  0  0  0  0  0  0  0  0  0  0
    0.5278   14.9571    1.6659 H   0  0  0  0  0  0  0  0  0  0  0  0
   -4.7568   13.7878   -0.2829 H   0  0  0  0  0  0  0  0  0  0  0  0
   -4.8238   15.5809   -0.3501 H   0  0  0  0  0  0  0  0  0  0  0  0
   -3.9852   13.7444   -2.4855 H   0  0  0  0  0  0  0  0  0  0  0  0
   -4.0522   15.5161   -2.5524 H   0  0  0  0  0  0  0  0  0  0  0  0
   -2.9489   15.1244   -4.2689 H   0  0  0  0  0  0  0  0  0  0  0  0
   -1.3592   15.2085   -5.0327 H   0  0  0  0  0  0  0  0  0  0  0  0
  1  2  1  0  0  0  0
  1  3  2  0  0  0  0
  2  4  2  0  0  0  0
  3  5  1  0  0  0  0
  4  9  1  0  0  0  0
  5  9  2  0  0  0  0
  6  8  1  0  0  0  0
  6 15  2  0  0  0  0
  7 15  1  0  0  0  0
  7 16  2  0  0  0  0
  8 10  2  0  0  0  0
  8 12  1  0  0  0  0
  9 14  1  0  0  0  0
 10 16  1  0  0  0  0
 10 17  1  0  0  0  0
 11 14  1  0  0  0  0
 11 17  1  0  0  0  0
 11 18  2  0  0  0  0
 12 13  1  0  0  0  0
 13 17  1  0  0  0  0
  1 19  1  0  0  0  0
  2 20  1  0  0  0  0
  3 21  1  0  0  0  0
  4 22  1  0  0  0  0
  5 23  1  0  0  0  0
  6 24  1  0  0  0  0
  7 25  1  0  0  0  0
 12 26  1  0  0  0  0
 12 27  1  0  0  0  0
 13 28  1  0  0  0  0
 13 29  1  0  0  0  0
 14 30  1  0  0  0  0
 14 31  1  0  0  0  0
M  END
> <HYBRID receptor title>
5S18(A) > WOY(A-201)

> <HYBRID receptor filename>
data/docking/5s18.oedu

> <HYBRID Chemgauss4 score>
-7.450140

> <HYBRID receptor title>
5S18(A) > WOY(A-201)

> <HYBRID receptor filename>
data/docking/5s18.oedu

> <Dock Type>
Hybrid

$$$$
MOL0169
  -OEChem-07032400353D

 30 32  0     0  0  0  0  0  0999 V2000
   -4.1187   15.2744   -1.0398 C   0  0  0  0  0  0  0  0  0  0  0  0
   -4.3203   15.4110    0.3293 C   0  0  0  0  0  0  0  0  0  0  0  0
   -2.8345   15.0539   -1.5269 C   0  0  0  0  0  0  0  0  0  0  0  0
   -3.2367   15.3255    1.2084 C   0  0  0  0  0  0  0  0  0  0  0  0
    0.3089   14.8109    1.0771 C   0  0  0  0  0  0  0  0  0  0  0  0
   -1.7504   14.9696   -0.6359 C   0  0  0  0  0  0  0  0  0  0  0  0
   -1.9407   15.1053    0.7489 C   0  0  0  0  0  0  0  0  0  0  0  0
   -0.4422   14.7506   -1.0566 C   0  0  0  0  0  0  0  0  0  0  0  0
    0.8123   16.3083   -3.8528 C   0  0  0  0  0  0  0  0  0  0  0  0
    2.0208   14.2553   -3.4119 C   0  0  0  0  0  0  0  0  0  0  0  0
   -0.4946   15.6789   -3.3575 C   0  0  0  0  0  0  0  0  0  0  0  0
    0.7338   13.5865   -2.9320 C   0  0  0  0  0  0  0  0  0  0  0  0
   -0.9109   15.0265    1.6100 N   0  0  0  0  0  0  0  0  0  0  0  0
    0.6116   14.6667   -0.2226 N   0  0  0  0  0  0  0  0  0  0  0  0
    1.7332   15.3053   -4.3918 N   0  0  0  0  0  0  0  0  0  0  0  0
   -0.1785   14.6055   -2.4118 N   0  0  0  0  0  0  0  0  0  0  0  0
   -4.9588   15.3411   -1.7245 H   0  0  0  0  0  0  0  0  0  0  0  0
   -5.3199   15.5854    0.7168 H   0  0  0  0  0  0  0  0  0  0  0  0
   -2.7031   14.9511   -2.6009 H   0  0  0  0  0  0  0  0  0  0  0  0
   -3.4210   15.4349    2.2757 H   0  0  0  0  0  0  0  0  0  0  0  0
    1.1340   14.7479    1.7760 H   0  0  0  0  0  0  0  0  0  0  0  0
    0.5992   17.0728   -4.6111 H   0  0  0  0  0  0  0  0  0  0  0  0
    1.2991   16.8211   -3.0155 H   0  0  0  0  0  0  0  0  0  0  0  0
    2.5323   14.7026   -2.5562 H   0  0  0  0  0  0  0  0  0  0  0  0
    2.6987   13.5120   -3.8419 H   0  0  0  0  0  0  0  0  0  0  0  0
   -1.1108   16.4391   -2.8673 H   0  0  0  0  0  0  0  0  0  0  0  0
   -1.0507   15.2902   -4.2147 H   0  0  0  0  0  0  0  0  0  0  0  0
    0.2761   13.0478   -3.7687 H   0  0  0  0  0  0  0  0  0  0  0  0
    0.9625   12.8557   -2.1467 H   0  0  0  0  0  0  0  0  0  0  0  0
    1.3193   14.8820   -5.2272 H   0  0  0  0  0  0  0  0  0  0  0  0
  1  2  1  0  0  0  0
  1  3  2  0  0  0  0
  2  4  2  0  0  0  0
  3  6  1  0  0  0  0
  4  7  1  0  0  0  0
  5 13  2  0  0  0  0
  5 14  1  0  0  0  0
  6  7  2  0  0  0  0
  6  8  1  0  0  0  0
  7 13  1  0  0  0  0
  8 14  2  0  0  0  0
  8 16  1  0  0  0  0
  9 11  1  0  0  0  0
  9 15  1  0  0  0  0
 10 12  1  0  0  0  0
 10 15  1  0  0  0  0
 11 16  1  0  0  0  0
 12 16  1  0  0  0  0
  1 17  1  0  0  0  0
  2 18  1  0  0  0  0
  3 19  1  0  0  0  0
  4 20  1  0  0  0  0
  5 21  1  0  0  0  0
  9 22  1  0  0  0  0
  9 23  1  0  0  0  0
 10 24  1  0  0  0  0
 10 25  1  0  0  0  0
 11 26  1  0  0  0  0
 11 27  1  0  0  0  0
 12 28  1  0  0  0  0
 12 29  1  0  0  0  0
 15 30  1  0  0  0  0
M  END
> <HYBRID receptor title>
5S18(A) > WOY(A-201)

> <HYBRID receptor filename>
data/docking/5s18.oedu

> <HYBRID Chemgauss4 score>
-7.425621

> <HYBRID receptor title>
5S18(A) > WOY(A-201)

> <HYBRID receptor filename>
data/docking/5s18.oedu

> <Dock Type>
Hybrid

$$$$
MOL0171
  -OEChem-07032400353D

 29 30  0     1  0  0  0  0  0999 V2000
   -2.8700   14.9993    1.6245 C   0  0  0  0  0  0  0  0  0  0  0  0
   -0.6798   14.9560    0.9759 C   0  0  0  0  0  0  0  0  0  0  0  0
   -3.2489   14.9598    0.3079 C   0  0  0  0  0  0  0  0  0  0  0  0
   -2.2523   14.9074   -0.6539 C   0  0  0  0  0  0  0  0  0  0  0  0
   -4.5971   14.9236   -0.3130 C   0  0  0  0  0  0  0  0  0  0  0  0
   -4.2490   15.1362   -1.7993 C   0  0  0  0  0  0  0  0  0  0  0  0
   -0.7115   14.4709   -3.0846 C   0  0  0  0  0  0  0  0  0  0  0  0
    0.0354   14.6059   -4.4101 C   0  0  0  0  0  0  0  0  0  0  0  0
   -2.1406   14.9987   -3.1995 C   0  0  0  0  0  0  0  0  0  0  0  0
    1.4474   14.0440   -4.3198 C   0  0  0  0  0  0  0  0  0  0  0  0
   -1.5725   15.0023    1.9920 N   0  0  0  0  0  0  0  0  0  0  0  0
   -0.9431   14.9059   -0.3479 N   0  0  0  0  0  0  0  0  0  0  0  0
   -2.8204   14.8566   -1.9591 N   0  0  1  0  0  0  0  0  0  0  0  0
    1.3721   12.6636   -3.9933 O   0  0  0  0  0  0  0  0  0  0  0  0
   -3.5913   15.0315    2.4321 H   0  0  0  0  0  0  0  0  0  0  0  0
    0.3662   14.9612    1.2571 H   0  0  0  0  0  0  0  0  0  0  0  0
   -5.0998   13.9655   -0.1543 H   0  0  0  0  0  0  0  0  0  0  0  0
   -5.2137   15.7441    0.0677 H   0  0  0  0  0  0  0  0  0  0  0  0
   -4.8289   14.4378   -2.4165 H   0  0  0  0  0  0  0  0  0  0  0  0
   -4.4950   16.1524   -2.1254 H   0  0  0  0  0  0  0  0  0  0  0  0
   -0.7274   13.4166   -2.7808 H   0  0  0  0  0  0  0  0  0  0  0  0
   -0.1731   15.0230   -2.3041 H   0  0  0  0  0  0  0  0  0  0  0  0
    0.0827   15.6593   -4.7141 H   0  0  0  0  0  0  0  0  0  0  0  0
   -0.5108   14.0881   -5.2085 H   0  0  0  0  0  0  0  0  0  0  0  0
   -2.1297   16.0572   -3.4812 H   0  0  0  0  0  0  0  0  0  0  0  0
   -2.6854   14.4517   -3.9764 H   0  0  0  0  0  0  0  0  0  0  0  0
    1.9702   14.1473   -5.2759 H   0  0  0  0  0  0  0  0  0  0  0  0
    2.0220   14.5555   -3.5414 H   0  0  0  0  0  0  0  0  0  0  0  0
    2.2851   12.3368   -3.9434 H   0  0  0  0  0  0  0  0  0  0  0  0
  1  3  1  0  0  0  0
  1 11  2  0  0  0  0
  2 11  1  0  0  0  0
  2 12  2  0  0  0  0
  3  4  2  0  0  0  0
  3  5  1  0  0  0  0
  4 12  1  0  0  0  0
  4 13  1  0  0  0  0
  5  6  1  0  0  0  0
  6 13  1  0  0  0  0
  7  8  1  0  0  0  0
  7  9  1  0  0  0  0
  8 10  1  0  0  0  0
  9 13  1  0  0  0  0
 10 14  1  0  0  0  0
  1 15  1  0  0  0  0
  2 16  1  0  0  0  0
  5 17  1  0  0  0  0
  5 18  1  0  0  0  0
  6 19  1  0  0  0  0
  6 20  1  0  0  0  0
  7 21  1  0  0  0  0
  7 22  1  0  0  0  0
  8 23  1  0  0  0  0
  8 24  1  0  0  0  0
  9 25  1  0  0  0  0
  9 26  1  0  0  0  0
 10 27  1  0  0  0  0
 10 28  1  0  0  0  0
 14 29  1  0  0  0  0
M  END
> <HYBRID receptor title>
5S18(A) > WOY(A-201)

> <HYBRID receptor filename>
data/docking/5s18.oedu

> <HYBRID Chemgauss4 score>
-7.417681

> <HYBRID receptor title>
5S18(A) > WOY(A-201)

> <HYBRID receptor filename>
data/docking/5s18.oedu

> <Dock Type>
Hybrid

$$$$
MOL0081
  -OEChem-07032400353D

 28 29  0     1  0  0  0  0  0999 V2000
   -2.6331   14.9658    1.1976 C   0  0  0  0  0  0  0  0  0  0  0  0
   -0.3955   14.5159    1.0943 C   0  0  0  0  0  0  0  0  0  0  0  0
   -2.7045   14.8663   -0.1676 C   0  0  0  0  0  0  0  0  0  0  0  0
   -1.5411   14.5683   -0.8593 C   0  0  0  0  0  0  0  0  0  0  0  0
   -3.8617   14.9878   -1.0899 C   0  0  0  0  0  0  0  0  0  0  0  0
   -3.1540   15.0051   -2.4589 C   0  0  0  0  0  0  0  0  0  0  0  0
    0.6803   12.9044   -4.6652 C   0  0  0  0  0  0  0  0  0  0  0  0
   -1.5313   12.0570   -3.8497 C   0  0  0  0  0  0  0  0  0  0  0  0
   -0.8410   14.4066   -3.3056 C   0  0  0  0  0  0  0  0  0  0  0  0
   -0.3487   12.9737   -3.5349 C   0  0  0  0  0  0  0  0  0  0  0  0
   -1.4728   14.7964    1.8638 N   0  0  0  0  0  0  0  0  0  0  0  0
   -0.3565   14.3870   -0.2496 N   0  0  0  0  0  0  0  0  0  0  0  0
   -1.7984   14.4887   -2.2579 N   0  0  1  0  0  0  0  0  0  0  0  0
   -3.5014   15.1861    1.8066 H   0  0  0  0  0  0  0  0  0  0  0  0
    0.5437   14.3807    1.6166 H   0  0  0  0  0  0  0  0  0  0  0  0
   -4.5478   14.1404   -1.0064 H   0  0  0  0  0  0  0  0  0  0  0  0
   -4.3943   15.9273   -0.9107 H   0  0  0  0  0  0  0  0  0  0  0  0
   -3.6925   14.3540   -3.1597 H   0  0  0  0  0  0  0  0  0  0  0  0
   -3.1370   16.0132   -2.8866 H   0  0  0  0  0  0  0  0  0  0  0  0
    0.2460   13.2590   -5.6065 H   0  0  0  0  0  0  0  0  0  0  0  0
    1.5567   13.5227   -4.4438 H   0  0  0  0  0  0  0  0  0  0  0  0
    1.0224   11.8768   -4.8284 H   0  0  0  0  0  0  0  0  0  0  0  0
   -2.0432   12.3811   -4.7613 H   0  0  0  0  0  0  0  0  0  0  0  0
   -1.1940   11.0270   -4.0056 H   0  0  0  0  0  0  0  0  0  0  0  0
   -2.2615   12.0550   -3.0332 H   0  0  0  0  0  0  0  0  0  0  0  0
   -0.0140   15.0780   -3.0520 H   0  0  0  0  0  0  0  0  0  0  0  0
   -1.3286   14.7960   -4.2055 H   0  0  0  0  0  0  0  0  0  0  0  0
    0.1305   12.6101   -2.6166 H   0  0  0  0  0  0  0  0  0  0  0  0
  1  3  1  0  0  0  0
  1 11  2  0  0  0  0
  2 11  1  0  0  0  0
  2 12  2  0  0  0  0
  3  4  2  0  0  0  0
  3  5  1  0  0  0  0
  4 12  1  0  0  0  0
  4 13  1  0  0  0  0
  5  6  1  0  0  0  0
  6 13  1  0  0  0  0
  7 10  1  0  0  0  0
  8 10  1  0  0  0  0
  9 10  1  0  0  0  0
  9 13  1  0  0  0  0
  1 14  1  0  0  0  0
  2 15  1  0  0  0  0
  5 16  1  0  0  0  0
  5 17  1  0  0  0  0
  6 18  1  0  0  0  0
  6 19  1  0  0  0  0
  7 20  1  0  0  0  0
  7 21  1  0  0  0  0
  7 22  1  0  0  0  0
  8 23  1  0  0  0  0
  8 24  1  0  0  0  0
  8 25  1  0  0  0  0
  9 26  1  0  0  0  0
  9 27  1  0  0  0  0
 10 28  1  0  0  0  0
M  END
> <HYBRID receptor title>
5S18(A) > WOY(A-201)

> <HYBRID receptor filename>
data/docking/5s18.oedu

> <HYBRID Chemgauss4 score>
-7.386474

> <HYBRID receptor title>
5S18(A) > WOY(A-201)

> <HYBRID receptor filename>
data/docking/5s18.oedu

> <Dock Type>
Hybrid

$$$$
MOL0199
  -OEChem-07032400353D

 21 22  0     0  0  0  0  0  0999 V2000
   -3.0159   14.1001   -2.9575 C   0  0  0  0  0  0  0  0  0  0  0  0
   -1.7879   14.1030   -2.2893 C   0  0  0  0  0  0  0  0  0  0  0  0
   -4.1093   14.8119   -0.9380 C   0  0  0  0  0  0  0  0  0  0  0  0
   -0.4984   14.8072    0.9809 C   0  0  0  0  0  0  0  0  0  0  0  0
   -2.8704   14.8118   -0.2737 C   0  0  0  0  0  0  0  0  0  0  0  0
   -4.1776   14.4555   -2.2809 C   0  0  0  0  0  0  0  0  0  0  0  0
   -1.6899   14.4554   -0.9456 C   0  0  0  0  0  0  0  0  0  0  0  0
   -2.7323   15.1577    1.0671 C   0  0  0  0  0  0  0  0  0  0  0  0
   -5.4880   14.4538   -2.9917 C   0  0  0  0  0  0  0  0  0  0  0  0
   -0.4997   14.4519   -0.3199 N   0  0  0  0  0  0  0  0  0  0  0  0
   -1.5572   15.1645    1.7245 N   0  0  0  0  0  0  0  0  0  0  0  0
   -3.8798   15.5295    1.8110 N   0  0  0  0  0  0  0  0  0  0  0  0
   -3.0514   13.8189   -4.0067 H   0  0  0  0  0  0  0  0  0  0  0  0
   -0.8930   13.8215   -2.8413 H   0  0  0  0  0  0  0  0  0  0  0  0
   -5.0269   15.0867   -0.4229 H   0  0  0  0  0  0  0  0  0  0  0  0
    0.4634   14.8027    1.4793 H   0  0  0  0  0  0  0  0  0  0  0  0
   -5.9828   13.4764   -2.9153 H   0  0  0  0  0  0  0  0  0  0  0  0
   -5.3614   14.6625   -4.0625 H   0  0  0  0  0  0  0  0  0  0  0  0
   -6.1549   15.2143   -2.5665 H   0  0  0  0  0  0  0  0  0  0  0  0
   -4.7578   15.5867    1.3432 H   0  0  0  0  0  0  0  0  0  0  0  0
   -3.7650   15.8265    2.7553 H   0  0  0  0  0  0  0  0  0  0  0  0
  1  2  2  0  0  0  0
  1  6  1  0  0  0  0
  2  7  1  0  0  0  0
  3  5  1  0  0  0  0
  3  6  2  0  0  0  0
  4 10  2  0  0  0  0
  4 11  1  0  0  0  0
  5  7  2  0  0  0  0
  5  8  1  0  0  0  0
  6  9  1  0  0  0  0
  7 10  1  0  0  0  0
  8 11  2  0  0  0  0
  8 12  1  0  0  0  0
  1 13  1  0  0  0  0
  2 14  1  0  0  0  0
  3 15  1  0  0  0  0
  4 16  1  0  0  0  0
  9 17  1  0  0  0  0
  9 18  1  0  0  0  0
  9 19  1  0  0  0  0
 12 20  1  0  0  0  0
 12 21  1  0  0  0  0
M  END
> <HYBRID receptor title>
5S18(A) > WOY(A-201)

> <HYBRID receptor filename>
data/docking/5s18.oedu

> <HYBRID Chemgauss4 score>
-7.342607

> <HYBRID receptor title>
5S18(A) > WOY(A-201)

> <HYBRID receptor filename>
data/docking/5s18.oedu

> <Dock Type>
Hybrid

$$$$
MOL0201
  -OEChem-07032400353D

 28 30  0     0  0  0  0  0  0999 V2000
    2.3078   13.9071   -2.5084 C   0  0  0  0  0  0  0  0  0  0  0  0
    1.6102   12.7299   -2.2379 C   0  0  0  0  0  0  0  0  0  0  0  0
    1.6248   15.0305   -2.9742 C   0  0  0  0  0  0  0  0  0  0  0  0
    0.2300   12.6760   -2.4329 C   0  0  0  0  0  0  0  0  0  0  0  0
    0.2446   14.9766   -3.1691 C   0  0  0  0  0  0  0  0  0  0  0  0
   -2.8993   15.0509    1.3929 C   0  0  0  0  0  0  0  0  0  0  0  0
   -0.6811   14.8978    0.8611 C   0  0  0  0  0  0  0  0  0  0  0  0
   -0.4530   13.7995   -2.8987 C   0  0  0  0  0  0  0  0  0  0  0  0
   -3.2267   14.6919    0.1103 C   0  0  0  0  0  0  0  0  0  0  0  0
   -2.1840   14.4459   -0.7610 C   0  0  0  0  0  0  0  0  0  0  0  0
   -1.9077   13.7423   -3.1038 C   0  0  0  0  0  0  0  0  0  0  0  0
   -4.5611   14.5000   -0.5172 C   0  0  0  0  0  0  0  0  0  0  0  0
   -4.1770   14.1387   -1.9593 C   0  0  0  0  0  0  0  0  0  0  0  0
   -1.6180   15.1649    1.8012 N   0  0  0  0  0  0  0  0  0  0  0  0
   -0.8876   14.5363   -0.4227 N   0  0  0  0  0  0  0  0  0  0  0  0
   -2.7003   14.0930   -2.0236 N   0  0  0  0  0  0  0  0  0  0  0  0
   -2.2972   13.4015   -4.2181 O   0  0  0  0  0  0  0  0  0  0  0  0
    3.3823   13.9488   -2.3566 H   0  0  0  0  0  0  0  0  0  0  0  0
    2.1414   11.8546   -1.8755 H   0  0  0  0  0  0  0  0  0  0  0  0
    2.1675   15.9472   -3.1862 H   0  0  0  0  0  0  0  0  0  0  0  0
   -0.3028   11.7531   -2.2185 H   0  0  0  0  0  0  0  0  0  0  0  0
   -0.2771   15.8584   -3.5327 H   0  0  0  0  0  0  0  0  0  0  0  0
   -3.6534   15.2586    2.1427 H   0  0  0  0  0  0  0  0  0  0  0  0
    0.3519   14.9844    1.1763 H   0  0  0  0  0  0  0  0  0  0  0  0
   -5.1052   13.6815   -0.0364 H   0  0  0  0  0  0  0  0  0  0  0  0
   -5.1523   15.4198   -0.4827 H   0  0  0  0  0  0  0  0  0  0  0  0
   -4.5820   13.1647   -2.2561 H   0  0  0  0  0  0  0  0  0  0  0  0
   -4.5367   14.8891   -2.6728 H   0  0  0  0  0  0  0  0  0  0  0  0
  1  2  1  0  0  0  0
  1  3  2  0  0  0  0
  2  4  2  0  0  0  0
  3  5  1  0  0  0  0
  4  8  1  0  0  0  0
  5  8  2  0  0  0  0
  6  9  1  0  0  0  0
  6 14  2  0  0  0  0
  7 14  1  0  0  0  0
  7 15  2  0  0  0  0
  8 11  1  0  0  0  0
  9 10  2  0  0  0  0
  9 12  1  0  0  0  0
 10 15  1  0  0  0  0
 10 16  1  0  0  0  0
 11 16  1  0  0  0  0
 11 17  2  0  0  0  0
 12 13  1  0  0  0  0
 13 16  1  0  0  0  0
  1 18  1  0  0  0  0
  2 19  1  0  0  0  0
  3 20  1  0  0  0  0
  4 21  1  0  0  0  0
  5 22  1  0  0  0  0
  6 23  1  0  0  0  0
  7 24  1  0  0  0  0
 12 25  1  0  0  0  0
 12 26  1  0  0  0  0
 13 27  1  0  0  0  0
 13 28  1  0  0  0  0
M  END
> <HYBRID receptor title>
5S18(A) > WOY(A-201)

> <HYBRID receptor filename>
data/docking/5s18.oedu

> <HYBRID Chemgauss4 score>
-7.341602

> <HYBRID receptor title>
5S18(A) > WOY(A-201)

> <HYBRID receptor filename>
data/docking/5s18.oedu

> <Dock Type>
Hybrid

$$$$
MOL0088
  -OEChem-07032400353D

 28 29  0     1  0  0  0  0  0999 V2000
   -2.4832   14.8364    1.5018 C   0  0  0  0  0  0  0  0  0  0  0  0
   -0.2160   14.7542    1.2366 C   0  0  0  0  0  0  0  0  0  0  0  0
   -2.6279   14.9070    0.1404 C   0  0  0  0  0  0  0  0  0  0  0  0
   -1.4801   14.9062   -0.6359 C   0  0  0  0  0  0  0  0  0  0  0  0
   -3.8456   15.0268   -0.7012 C   0  0  0  0  0  0  0  0  0  0  0  0
   -3.2606   14.8029   -2.1089 C   0  0  0  0  0  0  0  0  0  0  0  0
    1.5105   13.6562   -4.3934 C   0  0  0  0  0  0  0  0  0  0  0  0
    0.1111   13.1579   -4.7199 C   0  0  0  0  0  0  0  0  0  0  0  0
   -0.8439   13.3625   -3.5432 C   0  0  0  0  0  0  0  0  0  0  0  0
   -0.9390   14.8244   -3.1259 C   0  0  0  0  0  0  0  0  0  0  0  0
   -1.2703   14.7544    2.0851 N   0  0  0  0  0  0  0  0  0  0  0  0
   -0.2445   14.8276   -0.1112 N   0  0  0  0  0  0  0  0  0  0  0  0
   -1.8122   14.9985   -2.0173 N   0  0  2  0  0  0  0  0  0  0  0  0
   -3.3327   14.8446    2.1738 H   0  0  0  0  0  0  0  0  0  0  0  0
    0.7648   14.6891    1.6927 H   0  0  0  0  0  0  0  0  0  0  0  0
   -4.5943   14.2688   -0.4551 H   0  0  0  0  0  0  0  0  0  0  0  0
   -4.2750   16.0295   -0.6085 H   0  0  0  0  0  0  0  0  0  0  0  0
   -3.4702   13.7761   -2.4356 H   0  0  0  0  0  0  0  0  0  0  0  0
   -3.7090   15.4834   -2.8405 H   0  0  0  0  0  0  0  0  0  0  0  0
    1.9035   13.1348   -3.5164 H   0  0  0  0  0  0  0  0  0  0  0  0
    1.5038   14.7292   -4.1756 H   0  0  0  0  0  0  0  0  0  0  0  0
    2.1956   13.4798   -5.2290 H   0  0  0  0  0  0  0  0  0  0  0  0
   -0.2640   13.6922   -5.6005 H   0  0  0  0  0  0  0  0  0  0  0  0
    0.1640   12.0951   -4.9832 H   0  0  0  0  0  0  0  0  0  0  0  0
   -1.8409   12.9934   -3.8120 H   0  0  0  0  0  0  0  0  0  0  0  0
   -0.4977   12.7722   -2.6866 H   0  0  0  0  0  0  0  0  0  0  0  0
   -1.3028   15.4480   -3.9494 H   0  0  0  0  0  0  0  0  0  0  0  0
    0.0478   15.1941   -2.8315 H   0  0  0  0  0  0  0  0  0  0  0  0
  1  3  1  0  0  0  0
  1 11  2  0  0  0  0
  2 11  1  0  0  0  0
  2 12  2  0  0  0  0
  3  4  2  0  0  0  0
  3  5  1  0  0  0  0
  4 12  1  0  0  0  0
  4 13  1  0  0  0  0
  5  6  1  0  0  0  0
  6 13  1  0  0  0  0
  7  8  1  0  0  0  0
  8  9  1  0  0  0  0
  9 10  1  0  0  0  0
 10 13  1  0  0  0  0
  1 14  1  0  0  0  0
  2 15  1  0  0  0  0
  5 16  1  0  0  0  0
  5 17  1  0  0  0  0
  6 18  1  0  0  0  0
  6 19  1  0  0  0  0
  7 20  1  0  0  0  0
  7 21  1  0  0  0  0
  7 22  1  0  0  0  0
  8 23  1  0  0  0  0
  8 24  1  0  0  0  0
  9 25  1  0  0  0  0
  9 26  1  0  0  0  0
 10 27  1  0  0  0  0
 10 28  1  0  0  0  0
M  END
> <HYBRID receptor title>
5S18(A) > WOY(A-201)

> <HYBRID receptor filename>
data/docking/5s18.oedu

> <HYBRID Chemgauss4 score>
-7.326606

> <HYBRID receptor title>
5S18(A) > WOY(A-201)

> <HYBRID receptor filename>
data/docking/5s18.oedu

> <Dock Type>
Hybrid

$$$$
MOL0177
  -OEChem-07032400353D

 35 37  0     1  0  0  0  0  0999 V2000
   -0.1649   10.9482   -4.2899 C   0  0  0  0  0  0  0  0  0  0  0  0
   -0.9256   11.1441   -5.4426 C   0  0  0  0  0  0  0  0  0  0  0  0
   -0.6593   11.3561   -3.0511 C   0  0  0  0  0  0  0  0  0  0  0  0
   -2.1805   11.7474   -5.3566 C   0  0  0  0  0  0  0  0  0  0  0  0
   -1.9142   11.9594   -2.9650 C   0  0  0  0  0  0  0  0  0  0  0  0
   -3.2088   14.6200    1.7690 C   0  0  0  0  0  0  0  0  0  0  0  0
   -1.1137   14.8550    0.8887 C   0  0  0  0  0  0  0  0  0  0  0  0
   -3.7272   14.6003    0.5003 C   0  0  0  0  0  0  0  0  0  0  0  0
   -2.6748   12.1553   -4.1177 C   0  0  0  0  0  0  0  0  0  0  0  0
   -2.8456   14.7063   -0.5638 C   0  0  0  0  0  0  0  0  0  0  0  0
   -5.1252   14.4414    0.0259 C   0  0  0  0  0  0  0  0  0  0  0  0
   -4.9716   14.7620   -1.4737 C   0  0  0  0  0  0  0  0  0  0  0  0
   -4.0312   12.8075   -4.0242 C   0  0  0  0  0  0  0  0  0  0  0  0
   -3.9396   14.3288   -4.1690 C   0  0  0  0  0  0  0  0  0  0  0  0
   -3.0319   14.9298   -3.0968 C   0  0  0  0  0  0  0  0  0  0  0  0
   -1.8859   14.7521    1.9953 N   0  0  0  0  0  0  0  0  0  0  0  0
   -1.5176   14.8381   -0.4000 N   0  0  0  0  0  0  0  0  0  0  0  0
   -3.5484   14.6533   -1.8015 N   0  0  1  0  0  0  0  0  0  0  0  0
    0.8120   10.4786   -4.3569 H   0  0  0  0  0  0  0  0  0  0  0  0
   -0.5410   10.8262   -6.4073 H   0  0  0  0  0  0  0  0  0  0  0  0
   -0.0671   11.2038   -2.1535 H   0  0  0  0  0  0  0  0  0  0  0  0
   -2.7658   11.8959   -6.2601 H   0  0  0  0  0  0  0  0  0  0  0  0
   -2.2913   12.2728   -1.9952 H   0  0  0  0  0  0  0  0  0  0  0  0
   -3.8337   14.5323    2.6495 H   0  0  0  0  0  0  0  0  0  0  0  0
   -0.0493   14.9650    1.0564 H   0  0  0  0  0  0  0  0  0  0  0  0
   -5.5013   13.4263    0.1802 H   0  0  0  0  0  0  0  0  0  0  0  0
   -5.7791   15.1681    0.5184 H   0  0  0  0  0  0  0  0  0  0  0  0
   -5.5393   14.0325   -2.0659 H   0  0  0  0  0  0  0  0  0  0  0  0
   -5.3601   15.7581   -1.7107 H   0  0  0  0  0  0  0  0  0  0  0  0
   -4.6882   12.3926   -4.7989 H   0  0  0  0  0  0  0  0  0  0  0  0
   -4.4946   12.5460   -3.0648 H   0  0  0  0  0  0  0  0  0  0  0  0
   -4.9429   14.7685   -4.0961 H   0  0  0  0  0  0  0  0  0  0  0  0
   -3.5555   14.5840   -5.1654 H   0  0  0  0  0  0  0  0  0  0  0  0
   -2.0214   14.5157   -3.1806 H   0  0  0  0  0  0  0  0  0  0  0  0
   -2.9609   16.0145   -3.2283 H   0  0  0  0  0  0  0  0  0  0  0  0
  1  2  1  0  0  0  0
  1  3  2  0  0  0  0
  2  4  2  0  0  0  0
  3  5  1  0  0  0  0
  4  9  1  0  0  0  0
  5  9  2  0  0  0  0
  6  8  1  0  0  0  0
  6 16  2  0  0  0  0
  7 16  1  0  0  0  0
  7 17  2  0  0  0  0
  8 10  2  0  0  0  0
  8 11  1  0  0  0  0
  9 13  1  0  0  0  0
 10 17  1  0  0  0  0
 10 18  1  0  0  0  0
 11 12  1  0  0  0  0
 12 18  1  0  0  0  0
 13 14  1  0  0  0  0
 14 15  1  0  0  0  0
 15 18  1  0  0  0  0
  1 19  1  0  0  0  0
  2 20  1  0  0  0  0
  3 21  1  0  0  0  0
  4 22  1  0  0  0  0
  5 23  1  0  0  0  0
  6 24  1  0  0  0  0
  7 25  1  0  0  0  0
 11 26  1  0  0  0  0
 11 27  1  0  0  0  0
 12 28  1  0  0  0  0
 12 29  1  0  0  0  0
 13 30  1  0  0  0  0
 13 31  1  0  0  0  0
 14 32  1  0  0  0  0
 14 33  1  0  0  0  0
 15 34  1  0  0  0  0
 15 35  1  0  0  0  0
M  END
> <HYBRID receptor title>
5S18(A) > WOY(A-201)

> <HYBRID receptor filename>
data/docking/5s18.oedu

> <HYBRID Chemgauss4 score>
-7.309313

> <HYBRID receptor title>
5S18(A) > WOY(A-201)

> <HYBRID receptor filename>
data/docking/5s18.oedu

> <Dock Type>
Hybrid

$$$$
MOL0049
  -OEChem-07032400353D

 20 21  0     0  0  0  0  0  0999 V2000
   -0.0036   14.7093    0.9805 C   0  0  0  0  0  0  0  0  0  0  0  0
   -2.3728   14.9550   -0.1896 C   0  0  0  0  0  0  0  0  0  0  0  0
   -2.2265   15.0799    1.1816 C   0  0  0  0  0  0  0  0  0  0  0  0
   -1.2509   14.7041   -0.9345 C   0  0  0  0  0  0  0  0  0  0  0  0
   -3.7888   15.1578   -0.5968 C   0  0  0  0  0  0  0  0  0  0  0  0
   -4.4974   15.2439    0.7729 C   0  0  0  0  0  0  0  0  0  0  0  0
   -0.1150   14.3200   -2.9886 C   0  0  0  0  0  0  0  0  0  0  0  0
   -1.0427   14.9622    1.8051 N   0  0  0  0  0  0  0  0  0  0  0  0
   -0.0346   14.5712   -0.3666 N   0  0  0  0  0  0  0  0  0  0  0  0
   -3.4612   15.3437    1.7867 N   0  0  0  0  0  0  0  0  0  0  0  0
   -1.3306   14.5808   -2.2927 O   0  0  0  0  0  0  0  0  0  0  0  0
    0.9677   14.6059    1.4494 H   0  0  0  0  0  0  0  0  0  0  0  0
   -3.8980   16.0932   -1.1547 H   0  0  0  0  0  0  0  0  0  0  0  0
   -4.1673   14.3175   -1.1858 H   0  0  0  0  0  0  0  0  0  0  0  0
   -5.1730   16.1046    0.8137 H   0  0  0  0  0  0  0  0  0  0  0  0
   -5.0942   14.3409    0.9468 H   0  0  0  0  0  0  0  0  0  0  0  0
   -0.3163   14.2445   -4.0603 H   0  0  0  0  0  0  0  0  0  0  0  0
    0.5817   15.1421   -2.8079 H   0  0  0  0  0  0  0  0  0  0  0  0
    0.3224   13.3881   -2.6228 H   0  0  0  0  0  0  0  0  0  0  0  0
   -3.6073   15.4288    2.7804 H   0  0  0  0  0  0  0  0  0  0  0  0
  1  8  1  0  0  0  0
  1  9  2  0  0  0  0
  2  3  1  0  0  0  0
  2  4  2  0  0  0  0
  2  5  1  0  0  0  0
  3  8  2  0  0  0  0
  3 10  1  0  0  0  0
  4  9  1  0  0  0  0
  4 11  1  0  0  0  0
  5  6  1  0  0  0  0
  6 10  1  0  0  0  0
  7 11  1  0  0  0  0
  1 12  1  0  0  0  0
  5 13  1  0  0  0  0
  5 14  1  0  0  0  0
  6 15  1  0  0  0  0
  6 16  1  0  0  0  0
  7 17  1  0  0  0  0
  7 18  1  0  0  0  0
  7 19  1  0  0  0  0
 10 20  1  0  0  0  0
M  END
> <HYBRID receptor title>
5S18(A) > WOY(A-201)

> <HYBRID receptor filename>
data/docking/5s18.oedu

> <HYBRID Chemgauss4 score>
-7.305695

> <HYBRID receptor title>
5S18(A) > WOY(A-201)

> <HYBRID receptor filename>
data/docking/5s18.oedu

> <Dock Type>
Hybrid

$$$$
MOL0193
  -OEChem-07032400353D

 23 24  0     1  0  0  0  0  0999 V2000
   -1.3701   14.8517   -0.7726 C   0  0  0  0  0  0  0  0  0  0  0  0
   -0.0791   14.8068    1.1125 C   0  0  0  0  0  0  0  0  0  0  0  0
   -2.4812   15.0576    0.0043 C   0  0  0  0  0  0  0  0  0  0  0  0
   -2.3015   15.1373    1.3770 C   0  0  0  0  0  0  0  0  0  0  0  0
   -4.5851   15.1859    1.0434 C   0  0  0  0  0  0  0  0  0  0  0  0
   -3.9155   15.2731   -0.3532 C   0  0  2  0  0  0  0  0  0  0  0  0
   -4.4771   14.2567   -1.3347 C   0  0  0  0  0  0  0  0  0  0  0  0
   -5.9501   14.5023   -1.6200 C   0  0  0  0  0  0  0  0  0  0  0  0
   -0.1398   14.7157   -0.2368 N   0  0  0  0  0  0  0  0  0  0  0  0
   -1.1019   15.0160    1.9692 N   0  0  0  0  0  0  0  0  0  0  0  0
   -3.5261   15.3590    2.0240 N   0  0  0  0  0  0  0  0  0  0  0  0
   -6.4120   13.5121   -2.5285 O   0  0  0  0  0  0  0  0  0  0  0  0
   -1.4225   14.7936   -1.8530 H   0  0  0  0  0  0  0  0  0  0  0  0
    0.9041   14.7005    1.5553 H   0  0  0  0  0  0  0  0  0  0  0  0
   -5.3557   15.9554    1.1588 H   0  0  0  0  0  0  0  0  0  0  0  0
   -5.0604   14.2098    1.1991 H   0  0  0  0  0  0  0  0  0  0  0  0
   -4.0303   16.2886   -0.7522 H   0  0  0  0  0  0  0  0  0  0  0  0
   -3.9083   14.2924   -2.2708 H   0  0  0  0  0  0  0  0  0  0  0  0
   -4.3414   13.2443   -0.9372 H   0  0  0  0  0  0  0  0  0  0  0  0
   -6.5428   14.4362   -0.7017 H   0  0  0  0  0  0  0  0  0  0  0  0
   -6.1026   15.4881   -2.0718 H   0  0  0  0  0  0  0  0  0  0  0  0
   -3.6426   15.3785    3.0254 H   0  0  0  0  0  0  0  0  0  0  0  0
   -7.3516   13.6960   -2.6895 H   0  0  0  0  0  0  0  0  0  0  0  0
  1  3  1  0  0  0  0
  1  9  2  0  0  0  0
  2  9  1  0  0  0  0
  2 10  2  0  0  0  0
  3  4  2  0  0  0  0
  3  6  1  0  0  0  0
  4 10  1  0  0  0  0
  4 11  1  0  0  0  0
  5  6  1  0  0  0  0
  5 11  1  0  0  0  0
  6  7  1  0  0  0  0
  7  8  1  0  0  0  0
  8 12  1  0  0  0  0
  1 13  1  0  0  0  0
  2 14  1  0  0  0  0
  5 15  1  0  0  0  0
  5 16  1  0  0  0  0
  6 17  1  0  0  0  0
  7 18  1  0  0  0  0
  7 19  1  0  0  0  0
  8 20  1  0  0  0  0
  8 21  1  0  0  0  0
 11 22  1  0  0  0  0
 12 23  1  0  0  0  0
M  END
> <HYBRID receptor title>
5S18(A) > WOY(A-201)

> <HYBRID receptor filename>
data/docking/5s18.oedu

> <HYBRID Chemgauss4 score>
-7.285226

> <HYBRID receptor title>
5S18(A) > WOY(A-201)

> <HYBRID receptor filename>
data/docking/5s18.oedu

> <Dock Type>
Hybrid

$$$$
MOL0154
  -OEChem-07032400353D

 20 21  0     1  0  0  0  0  0999 V2000
   -1.1083   14.6852   -0.8405 C   0  0  0  0  0  0  0  0  0  0  0  0
   -0.0497   14.8576    1.1773 C   0  0  0  0  0  0  0  0  0  0  0  0
   -2.3083   14.9229   -0.2209 C   0  0  0  0  0  0  0  0  0  0  0  0
   -2.2948   15.1344    1.1495 C   0  0  0  0  0  0  0  0  0  0  0  0
   -4.5232   15.0739    0.5501 C   0  0  0  0  0  0  0  0  0  0  0  0
   -3.6946   15.0547   -0.7614 C   0  0  2  0  0  0  0  0  0  0  0  0
   -4.1117   13.9328   -1.6989 C   0  0  0  0  0  0  0  0  0  0  0  0
    0.0524   14.6413   -0.1551 N   0  0  0  0  0  0  0  0  0  0  0  0
   -1.1716   15.1092    1.8857 N   0  0  0  0  0  0  0  0  0  0  0  0
   -3.5924   15.3721    1.6260 N   0  0  0  0  0  0  0  0  0  0  0  0
   -3.5705   14.1878   -2.9844 O   0  0  0  0  0  0  0  0  0  0  0  0
   -1.0307   14.5265   -1.9092 H   0  0  0  0  0  0  0  0  0  0  0  0
    0.8761   14.8262    1.7393 H   0  0  0  0  0  0  0  0  0  0  0  0
   -5.3193   15.8242    0.5012 H   0  0  0  0  0  0  0  0  0  0  0  0
   -4.9914   14.1007    0.7420 H   0  0  0  0  0  0  0  0  0  0  0  0
   -3.7851   16.0242   -1.2667 H   0  0  0  0  0  0  0  0  0  0  0  0
   -5.1999   13.8872   -1.7725 H   0  0  0  0  0  0  0  0  0  0  0  0
   -3.7313   12.9756   -1.3355 H   0  0  0  0  0  0  0  0  0  0  0  0
   -3.8275   15.4796    2.6006 H   0  0  0  0  0  0  0  0  0  0  0  0
   -3.8522   13.4575   -3.5603 H   0  0  0  0  0  0  0  0  0  0  0  0
  1  3  1  0  0  0  0
  1  8  2  0  0  0  0
  2  8  1  0  0  0  0
  2  9  2  0  0  0  0
  3  4  2  0  0  0  0
  3  6  1  0  0  0  0
  4  9  1  0  0  0  0
  4 10  1  0  0  0  0
  5  6  1  0  0  0  0
  5 10  1  0  0  0  0
  6  7  1  0  0  0  0
  7 11  1  0  0  0  0
  1 12  1  0  0  0  0
  2 13  1  0  0  0  0
  5 14  1  0  0  0  0
  5 15  1  0  0  0  0
  6 16  1  0  0  0  0
  7 17  1  0  0  0  0
  7 18  1  0  0  0  0
 10 19  1  0  0  0  0
 11 20  1  0  0  0  0
M  END
> <HYBRID receptor title>
5S18(A) > WOY(A-201)

> <HYBRID receptor filename>
data/docking/5s18.oedu

> <HYBRID Chemgauss4 score>
-7.280724

> <HYBRID receptor title>
5S18(A) > WOY(A-201)

> <HYBRID receptor filename>
data/docking/5s18.oedu

> <Dock Type>
Hybrid

$$$$
MOL0036
  -OEChem-07032400353D

 19 20  0     1  0  0  0  0  0999 V2000
   -1.4488   14.6109   -1.0117 C   0  0  0  0  0  0  0  0  0  0  0  0
   -0.1874   14.5792    0.8927 C   0  0  0  0  0  0  0  0  0  0  0  0
   -2.5694   14.8218   -0.2511 C   0  0  0  0  0  0  0  0  0  0  0  0
   -2.4147   14.9062    1.1213 C   0  0  0  0  0  0  0  0  0  0  0  0
   -3.9922   15.0051   -0.6461 C   0  0  0  0  0  0  0  0  0  0  0  0
   -4.6966   15.1217    0.7332 C   0  0  1  0  0  0  0  0  0  0  0  0
   -5.6512   13.9609    0.9891 C   0  0  0  0  0  0  0  0  0  0  0  0
   -0.2270   14.4817   -0.4568 N   0  0  0  0  0  0  0  0  0  0  0  0
   -1.2244   14.7884    1.7328 N   0  0  0  0  0  0  0  0  0  0  0  0
   -3.6475   15.1244    1.7457 N   0  0  0  0  0  0  0  0  0  0  0  0
   -1.4892   14.5388   -2.0918 H   0  0  0  0  0  0  0  0  0  0  0  0
    0.7891   14.4780    1.3513 H   0  0  0  0  0  0  0  0  0  0  0  0
   -4.1064   15.9321   -1.2172 H   0  0  0  0  0  0  0  0  0  0  0  0
   -4.3530   14.1556   -1.2338 H   0  0  0  0  0  0  0  0  0  0  0  0
   -5.2588   16.0617    0.7825 H   0  0  0  0  0  0  0  0  0  0  0  0
   -5.1092   13.0168    0.9439 H   0  0  0  0  0  0  0  0  0  0  0  0
   -6.4387   13.9541    0.2362 H   0  0  0  0  0  0  0  0  0  0  0  0
   -6.1049   14.0623    1.9754 H   0  0  0  0  0  0  0  0  0  0  0  0
   -3.7824   15.2008    2.7418 H   0  0  0  0  0  0  0  0  0  0  0  0
  1  3  1  0  0  0  0
  1  8  2  0  0  0  0
  2  8  1  0  0  0  0
  2  9  2  0  0  0  0
  3  4  2  0  0  0  0
  3  5  1  0  0  0  0
  4  9  1  0  0  0  0
  4 10  1  0  0  0  0
  5  6  1  0  0  0  0
  6  7  1  0  0  0  0
  6 10  1  0  0  0  0
  1 11  1  0  0  0  0
  2 12  1  0  0  0  0
  5 13  1  0  0  0  0
  5 14  1  0  0  0  0
  6 15  1  0  0  0  0
  7 16  1  0  0  0  0
  7 17  1  0  0  0  0
  7 18  1  0  0  0  0
 10 19  1  0  0  0  0
M  END
> <HYBRID receptor title>
5S18(A) > WOY(A-201)

> <HYBRID receptor filename>
data/docking/5s18.oedu

> <HYBRID Chemgauss4 score>
-7.254654

> <HYBRID receptor title>
5S18(A) > WOY(A-201)

> <HYBRID receptor filename>
data/docking/5s18.oedu

> <Dock Type>
Hybrid

$$$$
MOL0208
  -OEChem-07032400353D

 31 33  0     0  0  0  0  0  0999 V2000
   -2.8154   14.8309    1.1501 C   0  0  0  0  0  0  0  0  0  0  0  0
   -0.5642   14.6147    0.8217 C   0  0  0  0  0  0  0  0  0  0  0  0
   -3.0311   14.5128   -0.1662 C   0  0  0  0  0  0  0  0  0  0  0  0
   -1.9190   14.2741   -0.9530 C   0  0  0  0  0  0  0  0  0  0  0  0
   -1.5549   13.5617   -3.3379 C   0  0  0  0  0  0  0  0  0  0  0  0
   -4.3049   14.3900   -0.9255 C   0  0  0  0  0  0  0  0  0  0  0  0
   -3.8040   13.7787   -2.2392 C   0  0  0  0  0  0  0  0  0  0  0  0
    0.7516   13.6085   -4.2030 C   0  0  0  0  0  0  0  0  0  0  0  0
   -0.3720   15.7466   -3.7492 C   0  0  0  0  0  0  0  0  0  0  0  0
    2.0609   14.2726   -3.8027 C   0  0  0  0  0  0  0  0  0  0  0  0
    0.9827   16.3270   -3.3711 C   0  0  0  0  0  0  0  0  0  0  0  0
   -1.5753   14.8916    1.6781 N   0  0  0  0  0  0  0  0  0  0  0  0
   -0.6612   14.2958   -0.4862 N   0  0  0  0  0  0  0  0  0  0  0  0
   -2.3403   13.9454   -2.2597 N   0  0  0  0  0  0  0  0  0  0  0  0
   -0.3815   14.2882   -3.5791 N   0  0  0  0  0  0  0  0  0  0  0  0
   -1.8904   12.6153   -4.0621 O   0  0  0  0  0  0  0  0  0  0  0  0
    2.0251   15.6703   -4.0959 O   0  0  0  0  0  0  0  0  0  0  0  0
   -3.6286   15.0590    1.8282 H   0  0  0  0  0  0  0  0  0  0  0  0
    0.4372   14.6544    1.2339 H   0  0  0  0  0  0  0  0  0  0  0  0
   -5.0189   13.7346   -0.4212 H   0  0  0  0  0  0  0  0  0  0  0  0
   -4.7445   15.3770   -1.0930 H   0  0  0  0  0  0  0  0  0  0  0  0
   -4.0406   12.7111   -2.2372 H   0  0  0  0  0  0  0  0  0  0  0  0
   -4.2591   14.2439   -3.1188 H   0  0  0  0  0  0  0  0  0  0  0  0
    0.6508   13.5738   -5.2893 H   0  0  0  0  0  0  0  0  0  0  0  0
    0.7313   12.5806   -3.8278 H   0  0  0  0  0  0  0  0  0  0  0  0
   -1.1551   16.1467   -3.0977 H   0  0  0  0  0  0  0  0  0  0  0  0
   -0.5726   16.0155   -4.7855 H   0  0  0  0  0  0  0  0  0  0  0  0
    2.2180   14.1640   -2.7223 H   0  0  0  0  0  0  0  0  0  0  0  0
    2.9200   13.8080   -4.3063 H   0  0  0  0  0  0  0  0  0  0  0  0
    1.0256   17.4013   -3.5687 H   0  0  0  0  0  0  0  0  0  0  0  0
    1.1704   16.1733   -2.3072 H   0  0  0  0  0  0  0  0  0  0  0  0
  1  3  1  0  0  0  0
  1 12  2  0  0  0  0
  2 12  1  0  0  0  0
  2 13  2  0  0  0  0
  3  4  2  0  0  0  0
  3  6  1  0  0  0  0
  4 13  1  0  0  0  0
  4 14  1  0  0  0  0
  5 14  1  0  0  0  0
  5 15  1  0  0  0  0
  5 16  2  0  0  0  0
  6  7  1  0  0  0  0
  7 14  1  0  0  0  0
  8 10  1  0  0  0  0
  8 15  1  0  0  0  0
  9 11  1  0  0  0  0
  9 15  1  0  0  0  0
 10 17  1  0  0  0  0
 11 17  1  0  0  0  0
  1 18  1  0  0  0  0
  2 19  1  0  0  0  0
  6 20  1  0  0  0  0
  6 21  1  0  0  0  0
  7 22  1  0  0  0  0
  7 23  1  0  0  0  0
  8 24  1  0  0  0  0
  8 25  1  0  0  0  0
  9 26  1  0  0  0  0
  9 27  1  0  0  0  0
 10 28  1  0  0  0  0
 10 29  1  0  0  0  0
 11 30  1  0  0  0  0
 11 31  1  0  0  0  0
M  END
> <HYBRID receptor title>
5S18(A) > WOY(A-201)

> <HYBRID receptor filename>
data/docking/5s18.oedu

> <HYBRID Chemgauss4 score>
-7.246384

> <HYBRID receptor title>
5S18(A) > WOY(A-201)

> <HYBRID receptor filename>
data/docking/5s18.oedu

> <Dock Type>
Hybrid

$$$$
MOL0072
  -OEChem-07032400353D

 26 27  0     1  0  0  0  0  0999 V2000
   -2.6869   14.8721    1.4924 C   0  0  0  0  0  0  0  0  0  0  0  0
   -0.4422   14.6945    1.1059 C   0  0  0  0  0  0  0  0  0  0  0  0
   -2.9108   14.8380    0.1406 C   0  0  0  0  0  0  0  0  0  0  0  0
   -1.8134   14.7161   -0.6970 C   0  0  0  0  0  0  0  0  0  0  0  0
   -4.1769   14.8717   -0.6342 C   0  0  0  0  0  0  0  0  0  0  0  0
   -3.6456   15.0452   -2.0704 C   0  0  0  0  0  0  0  0  0  0  0  0
    1.6183   12.9606   -4.2211 C   0  0  0  0  0  0  0  0  0  0  0  0
   -1.3995   14.7687   -3.2124 C   0  0  0  0  0  0  0  0  0  0  0  0
   -0.3913   13.6344   -3.2050 C   0  0  0  0  0  0  0  0  0  0  0  0
   -1.4434   14.8050    2.0098 N   0  0  0  0  0  0  0  0  0  0  0  0
   -0.5513   14.6430   -0.2393 N   0  0  0  0  0  0  0  0  0  0  0  0
   -2.2269   14.6817   -2.0596 N   0  0  1  0  0  0  0  0  0  0  0  0
    0.4262   13.7201   -4.3653 O   0  0  0  0  0  0  0  0  0  0  0  0
   -3.4946   14.9560    2.2095 H   0  0  0  0  0  0  0  0  0  0  0  0
    0.5622   14.6430    1.5081 H   0  0  0  0  0  0  0  0  0  0  0  0
   -4.7501   13.9462   -0.5301 H   0  0  0  0  0  0  0  0  0  0  0  0
   -4.7846   15.7311   -0.3332 H   0  0  0  0  0  0  0  0  0  0  0  0
   -4.1893   14.3736   -2.7475 H   0  0  0  0  0  0  0  0  0  0  0  0
   -3.7916   16.0696   -2.4290 H   0  0  0  0  0  0  0  0  0  0  0  0
    2.2204   13.0495   -5.1290 H   0  0  0  0  0  0  0  0  0  0  0  0
    2.1856   13.3471   -3.3710 H   0  0  0  0  0  0  0  0  0  0  0  0
    1.3645   11.9135   -4.0406 H   0  0  0  0  0  0  0  0  0  0  0  0
   -2.0381   14.7098   -4.0989 H   0  0  0  0  0  0  0  0  0  0  0  0
   -0.8963   15.7404   -3.1977 H   0  0  0  0  0  0  0  0  0  0  0  0
    0.2506   13.6701   -2.3186 H   0  0  0  0  0  0  0  0  0  0  0  0
   -0.9111   12.6718   -3.2288 H   0  0  0  0  0  0  0  0  0  0  0  0
  1  3  1  0  0  0  0
  1 10  2  0  0  0  0
  2 10  1  0  0  0  0
  2 11  2  0  0  0  0
  3  4  2  0  0  0  0
  3  5  1  0  0  0  0
  4 11  1  0  0  0  0
  4 12  1  0  0  0  0
  5  6  1  0  0  0  0
  6 12  1  0  0  0  0
  7 13  1  0  0  0  0
  8  9  1  0  0  0  0
  8 12  1  0  0  0  0
  9 13  1  0  0  0  0
  1 14  1  0  0  0  0
  2 15  1  0  0  0  0
  5 16  1  0  0  0  0
  5 17  1  0  0  0  0
  6 18  1  0  0  0  0
  6 19  1  0  0  0  0
  7 20  1  0  0  0  0
  7 21  1  0  0  0  0
  7 22  1  0  0  0  0
  8 23  1  0  0  0  0
  8 24  1  0  0  0  0
  9 25  1  0  0  0  0
  9 26  1  0  0  0  0
M  END
> <HYBRID receptor title>
5S18(A) > WOY(A-201)

> <HYBRID receptor filename>
data/docking/5s18.oedu

> <HYBRID Chemgauss4 score>
-7.215194

> <HYBRID receptor title>
5S18(A) > WOY(A-201)

> <HYBRID receptor filename>
data/docking/5s18.oedu

> <Dock Type>
Hybrid

$$$$
MOL0038
  -OEChem-07032400353D

 17 18  0     0  0  0  0  0  0999 V2000
   -1.6215   14.8354   -0.9641 C   0  0  0  0  0  0  0  0  0  0  0  0
   -2.8061   14.9996   -0.2960 C   0  0  0  0  0  0  0  0  0  0  0  0
   -2.7680   15.0588    1.0869 C   0  0  0  0  0  0  0  0  0  0  0  0
   -0.5217   14.7934    1.0387 C   0  0  0  0  0  0  0  0  0  0  0  0
   -4.1957   15.1634   -0.8001 C   0  0  0  0  0  0  0  0  0  0  0  0
   -5.0074   15.1479    0.5139 C   0  0  0  0  0  0  0  0  0  0  0  0
   -0.4461   14.7246   -0.3120 N   0  0  0  0  0  0  0  0  0  0  0  0
   -1.6297   14.9588    1.7927 N   0  0  0  0  0  0  0  0  0  0  0  0
   -4.0552   15.2384    1.6078 N   0  0  0  0  0  0  0  0  0  0  0  0
    0.6681   14.6826    1.7211 O   0  0  0  0  0  0  0  0  0  0  0  0
   -1.5699   14.7882   -2.0450 H   0  0  0  0  0  0  0  0  0  0  0  0
   -4.3053   16.1214   -1.3178 H   0  0  0  0  0  0  0  0  0  0  0  0
   -4.4891   14.3402   -1.4579 H   0  0  0  0  0  0  0  0  0  0  0  0
   -5.7239   15.9752    0.5455 H   0  0  0  0  0  0  0  0  0  0  0  0
   -5.5723   14.2121    0.5973 H   0  0  0  0  0  0  0  0  0  0  0  0
   -4.2784   15.2659    2.5904 H   0  0  0  0  0  0  0  0  0  0  0  0
    1.3778   14.5697    1.0697 H   0  0  0  0  0  0  0  0  0  0  0  0
  1  2  1  0  0  0  0
  1  7  2  0  0  0  0
  2  3  2  0  0  0  0
  2  5  1  0  0  0  0
  3  8  1  0  0  0  0
  3  9  1  0  0  0  0
  4  7  1  0  0  0  0
  4  8  2  0  0  0  0
  4 10  1  0  0  0  0
  5  6  1  0  0  0  0
  6  9  1  0  0  0  0
  1 11  1  0  0  0  0
  5 12  1  0  0  0  0
  5 13  1  0  0  0  0
  6 14  1  0  0  0  0
  6 15  1  0  0  0  0
  9 16  1  0  0  0  0
 10 17  1  0  0  0  0
M  END
> <HYBRID receptor title>
5S18(A) > WOY(A-201)

> <HYBRID receptor filename>
data/docking/5s18.oedu

> <HYBRID Chemgauss4 score>
-7.198415

> <HYBRID receptor title>
5S18(A) > WOY(A-201)

> <HYBRID receptor filename>
data/docking/5s18.oedu

> <Dock Type>
Hybrid

$$$$
MOL0122
  -OEChem-07032400353D

 24 25  0     1  0  0  0  0  0999 V2000
   -0.9701   14.6607   -0.7449 C   0  0  0  0  0  0  0  0  0  0  0  0
   -0.0826   15.0192    1.3074 C   0  0  0  0  0  0  0  0  0  0  0  0
   -2.2599   14.7750   -0.2506 C   0  0  0  0  0  0  0  0  0  0  0  0
   -2.3708   14.9900    1.1253 C   0  0  0  0  0  0  0  0  0  0  0  0
   -4.7799   14.5848    0.9491 C   0  0  0  0  0  0  0  0  0  0  0  0
   -4.6752   14.9994   -0.5239 C   0  0  2  0  0  0  0  0  0  0  0  0
   -7.1514   14.7217   -0.8592 C   0  0  0  0  0  0  0  0  0  0  0  0
   -5.7698   14.3378   -1.3548 C   0  0  0  0  0  0  0  0  0  0  0  0
    0.1422   14.7814    0.0056 N   0  0  0  0  0  0  0  0  0  0  0  0
   -1.2791   15.1322    1.9148 N   0  0  0  0  0  0  0  0  0  0  0  0
   -3.3723   14.6347   -1.0613 N   0  0  0  0  0  0  0  0  0  0  0  0
   -3.6364   15.0679    1.6997 N   0  0  0  0  0  0  0  0  0  0  0  0
   -0.7869   14.4696   -1.7982 H   0  0  0  0  0  0  0  0  0  0  0  0
    0.7910   15.1296    1.9381 H   0  0  0  0  0  0  0  0  0  0  0  0
   -5.6969   14.9906    1.3909 H   0  0  0  0  0  0  0  0  0  0  0  0
   -4.8343   13.4926    1.0413 H   0  0  0  0  0  0  0  0  0  0  0  0
   -4.7917   16.0885   -0.5988 H   0  0  0  0  0  0  0  0  0  0  0  0
   -7.2964   15.8064   -0.8979 H   0  0  0  0  0  0  0  0  0  0  0  0
   -7.2819   14.3976    0.1777 H   0  0  0  0  0  0  0  0  0  0  0  0
   -7.9317   14.2492   -1.4643 H   0  0  0  0  0  0  0  0  0  0  0  0
   -5.6494   13.2522   -1.3067 H   0  0  0  0  0  0  0  0  0  0  0  0
   -5.6564   14.6371   -2.4007 H   0  0  0  0  0  0  0  0  0  0  0  0
   -3.2427   14.5869   -2.0652 H   0  0  0  0  0  0  0  0  0  0  0  0
   -3.7045   15.2019    2.7008 H   0  0  0  0  0  0  0  0  0  0  0  0
  1  3  1  0  0  0  0
  1  9  2  0  0  0  0
  2  9  1  0  0  0  0
  2 10  2  0  0  0  0
  3  4  2  0  0  0  0
  3 11  1  0  0  0  0
  4 10  1  0  0  0  0
  4 12  1  0  0  0  0
  5  6  1  0  0  0  0
  5 12  1  0  0  0  0
  6  8  1  0  0  0  0
  6 11  1  0  0  0  0
  7  8  1  0  0  0  0
  1 13  1  0  0  0  0
  2 14  1  0  0  0  0
  5 15  1  0  0  0  0
  5 16  1  0  0  0  0
  6 17  1  0  0  0  0
  7 18  1  0  0  0  0
  7 19  1  0  0  0  0
  7 20  1  0  0  0  0
  8 21  1  0  0  0  0
  8 22  1  0  0  0  0
 11 23  1  0  0  0  0
 12 24  1  0  0  0  0
M  END
> <HYBRID receptor title>
5S18(A) > WOY(A-201)

> <HYBRID receptor filename>
data/docking/5s18.oedu

> <HYBRID Chemgauss4 score>
-7.196218

> <HYBRID receptor title>
5S18(A) > WOY(A-201)

> <HYBRID receptor filename>
data/docking/5s18.oedu

> <Dock Type>
Hybrid

$$$$
MOL0189
  -OEChem-07032400353D

 22 23  0     0  0  0  0  0  0999 V2000
   -0.3053   14.6686    0.6476 C   0  0  0  0  0  0  0  0  0  0  0  0
   -2.7815   15.1665   -0.1668 C   0  0  0  0  0  0  0  0  0  0  0  0
   -1.8056   14.8330   -1.0684 C   0  0  0  0  0  0  0  0  0  0  0  0
   -2.4313   15.2388    1.1710 C   0  0  0  0  0  0  0  0  0  0  0  0
   -4.2147   15.5115   -0.3636 C   0  0  0  0  0  0  0  0  0  0  0  0
   -4.7108   15.6250    1.0946 C   0  0  0  0  0  0  0  0  0  0  0  0
   -2.2375   13.3038   -3.0075 C   0  0  0  0  0  0  0  0  0  0  0  0
   -2.1033   14.7468   -2.5249 C   0  0  0  0  0  0  0  0  0  0  0  0
   -0.5398   14.5717   -0.6829 N   0  0  0  0  0  0  0  0  0  0  0  0
   -1.1880   14.9940    1.6163 N   0  0  0  0  0  0  0  0  0  0  0  0
   -3.5369   15.5995    1.9507 N   0  0  0  0  0  0  0  0  0  0  0  0
    0.7082   14.4614    0.9703 H   0  0  0  0  0  0  0  0  0  0  0  0
   -4.3112   16.4692   -0.8849 H   0  0  0  0  0  0  0  0  0  0  0  0
   -4.7539   14.7282   -0.9043 H   0  0  0  0  0  0  0  0  0  0  0  0
   -5.2898   16.5420    1.2447 H   0  0  0  0  0  0  0  0  0  0  0  0
   -5.3594   14.7756    1.3390 H   0  0  0  0  0  0  0  0  0  0  0  0
   -3.0141   12.7728   -2.4463 H   0  0  0  0  0  0  0  0  0  0  0  0
   -1.2969   12.7581   -2.8777 H   0  0  0  0  0  0  0  0  0  0  0  0
   -2.5041   13.2724   -4.0684 H   0  0  0  0  0  0  0  0  0  0  0  0
   -1.3152   15.2482   -3.1103 H   0  0  0  0  0  0  0  0  0  0  0  0
   -3.0318   15.2926   -2.7619 H   0  0  0  0  0  0  0  0  0  0  0  0
   -3.5321   15.6696    2.9562 H   0  0  0  0  0  0  0  0  0  0  0  0
  1  9  2  0  0  0  0
  1 10  1  0  0  0  0
  2  3  2  0  0  0  0
  2  4  1  0  0  0  0
  2  5  1  0  0  0  0
  3  8  1  0  0  0  0
  3  9  1  0  0  0  0
  4 10  2  0  0  0  0
  4 11  1  0  0  0  0
  5  6  1  0  0  0  0
  6 11  1  0  0  0  0
  7  8  1  0  0  0  0
  1 12  1  0  0  0  0
  5 13  1  0  0  0  0
  5 14  1  0  0  0  0
  6 15  1  0  0  0  0
  6 16  1  0  0  0  0
  7 17  1  0  0  0  0
  7 18  1  0  0  0  0
  7 19  1  0  0  0  0
  8 20  1  0  0  0  0
  8 21  1  0  0  0  0
 11 22  1  0  0  0  0
M  END
> <HYBRID receptor title>
5S18(A) > WOY(A-201)

> <HYBRID receptor filename>
data/docking/5s18.oedu

> <HYBRID Chemgauss4 score>
-7.188426

> <HYBRID receptor title>
5S18(A) > WOY(A-201)

> <HYBRID receptor filename>
data/docking/5s18.oedu

> <Dock Type>
Hybrid

$$$$
MOL0192
  -OEChem-07032400353D

 26 28  0     1  0  0  0  0  0999 V2000
   -5.4589   13.2589   -3.8297 C   0  0  0  0  0  0  0  0  0  0  0  0
   -4.5649   12.6975   -2.9180 C   0  0  0  0  0  0  0  0  0  0  0  0
   -5.7610   14.6189   -3.7621 C   0  0  0  0  0  0  0  0  0  0  0  0
   -3.9729   13.4958   -1.9391 C   0  0  0  0  0  0  0  0  0  0  0  0
   -5.1690   15.4173   -2.7833 C   0  0  0  0  0  0  0  0  0  0  0  0
   -1.1665   14.8688   -0.9741 C   0  0  0  0  0  0  0  0  0  0  0  0
   -0.1205   14.5523    1.0322 C   0  0  0  0  0  0  0  0  0  0  0  0
   -4.2750   14.8559   -1.8716 C   0  0  0  0  0  0  0  0  0  0  0  0
   -2.3060   15.2457   -0.3094 C   0  0  0  0  0  0  0  0  0  0  0  0
   -2.2678   15.2659    1.0761 C   0  0  0  0  0  0  0  0  0  0  0  0
   -4.4505   15.7943    0.5117 C   0  0  0  0  0  0  0  0  0  0  0  0
   -3.6345   15.7202   -0.8123 C   0  0  2  0  0  0  0  0  0  0  0  0
   -0.0454   14.5057   -0.3186 N   0  0  0  0  0  0  0  0  0  0  0  0
   -1.1801   14.9201    1.7846 N   0  0  0  0  0  0  0  0  0  0  0  0
   -3.4925   15.6982    1.6012 N   0  0  0  0  0  0  0  0  0  0  0  0
   -5.9198   12.6375   -4.5918 H   0  0  0  0  0  0  0  0  0  0  0  0
   -4.3292   11.6386   -2.9707 H   0  0  0  0  0  0  0  0  0  0  0  0
   -6.4572   15.0562   -4.4718 H   0  0  0  0  0  0  0  0  0  0  0  0
   -3.2776   13.0495   -1.2331 H   0  0  0  0  0  0  0  0  0  0  0  0
   -5.4098   16.4761   -2.7392 H   0  0  0  0  0  0  0  0  0  0  0  0
   -1.1082   14.8480   -2.0557 H   0  0  0  0  0  0  0  0  0  0  0  0
    0.7733   14.2632    1.5725 H   0  0  0  0  0  0  0  0  0  0  0  0
   -5.0100   16.7345    0.5707 H   0  0  0  0  0  0  0  0  0  0  0  0
   -5.1725   14.9725    0.5955 H   0  0  0  0  0  0  0  0  0  0  0  0
   -3.5081   16.7486   -1.2238 H   0  0  0  0  0  0  0  0  0  0  0  0
   -3.7078   15.7395    2.5852 H   0  0  0  0  0  0  0  0  0  0  0  0
  1  2  1  0  0  0  0
  1  3  2  0  0  0  0
  2  4  2  0  0  0  0
  3  5  1  0  0  0  0
  4  8  1  0  0  0  0
  5  8  2  0  0  0  0
  6  9  1  0  0  0  0
  6 13  2  0  0  0  0
  7 13  1  0  0  0  0
  7 14  2  0  0  0  0
  8 12  1  0  0  0  0
  9 10  2  0  0  0  0
  9 12  1  0  0  0  0
 10 14  1  0  0  0  0
 10 15  1  0  0  0  0
 11 12  1  0  0  0  0
 11 15  1  0  0  0  0
  1 16  1  0  0  0  0
  2 17  1  0  0  0  0
  3 18  1  0  0  0  0
  4 19  1  0  0  0  0
  5 20  1  0  0  0  0
  6 21  1  0  0  0  0
  7 22  1  0  0  0  0
 11 23  1  0  0  0  0
 11 24  1  0  0  0  0
 12 25  1  0  0  0  0
 15 26  1  0  0  0  0
M  END
> <HYBRID receptor title>
5S18(A) > WOY(A-201)

> <HYBRID receptor filename>
data/docking/5s18.oedu

> <HYBRID Chemgauss4 score>
-7.144253

> <HYBRID receptor title>
5S18(A) > WOY(A-201)

> <HYBRID receptor filename>
data/docking/5s18.oedu

> <Dock Type>
Hybrid

$$$$
MOL0186
  -OEChem-07032400353D

 26 28  0     1  0  0  0  0  0999 V2000
   -1.4383   11.2402   -4.9049 C   0  0  0  0  0  0  0  0  0  0  0  0
   -1.4437   12.6597   -5.0293 C   0  0  0  0  0  0  0  0  0  0  0  0
   -3.0200   15.0480    1.1578 C   0  0  0  0  0  0  0  0  0  0  0  0
   -1.5888   10.8346   -3.5971 C   0  0  0  0  0  0  0  0  0  0  0  0
   -0.7805   14.7531    0.8189 C   0  0  0  0  0  0  0  0  0  0  0  0
   -3.2077   15.0901   -0.1995 C   0  0  0  0  0  0  0  0  0  0  0  0
   -1.5982   13.2849   -3.8110 C   0  0  0  0  0  0  0  0  0  0  0  0
   -2.0939   14.9621   -1.0138 C   0  0  0  0  0  0  0  0  0  0  0  0
   -4.4399   15.2941   -1.0030 C   0  0  0  0  0  0  0  0  0  0  0  0
   -3.9292   14.9757   -2.4214 C   0  0  0  0  0  0  0  0  0  0  0  0
   -1.6539   14.7565   -3.5165 C   0  0  0  0  0  0  0  0  0  0  0  0
   -1.7987   14.8742    1.7021 N   0  0  0  0  0  0  0  0  0  0  0  0
   -0.8518   14.7879   -0.5288 N   0  0  0  0  0  0  0  0  0  0  0  0
   -2.4668   15.0423   -2.3855 N   0  0  2  0  0  0  0  0  0  0  0  0
   -1.7359   12.1622   -2.5253 S   0  0  0  0  0  0  0  0  0  0  0  0
   -1.3303   10.5509   -5.7323 H   0  0  0  0  0  0  0  0  0  0  0  0
   -1.3381   13.1914   -5.9665 H   0  0  0  0  0  0  0  0  0  0  0  0
   -3.8402   15.1532    1.8575 H   0  0  0  0  0  0  0  0  0  0  0  0
   -1.6186    9.8226   -3.2188 H   0  0  0  0  0  0  0  0  0  0  0  0
    0.2067   14.6134    1.2435 H   0  0  0  0  0  0  0  0  0  0  0  0
   -5.2438   14.6147   -0.7065 H   0  0  0  0  0  0  0  0  0  0  0  0
   -4.7743   16.3338   -0.9294 H   0  0  0  0  0  0  0  0  0  0  0  0
   -4.2416   13.9626   -2.7063 H   0  0  0  0  0  0  0  0  0  0  0  0
   -4.3416   15.6716   -3.1598 H   0  0  0  0  0  0  0  0  0  0  0  0
   -0.6508   15.1488   -3.3191 H   0  0  0  0  0  0  0  0  0  0  0  0
   -2.0588   15.3124   -4.3686 H   0  0  0  0  0  0  0  0  0  0  0  0
  1  2  1  0  0  0  0
  1  4  2  0  0  0  0
  2  7  2  0  0  0  0
  3  6  1  0  0  0  0
  3 12  2  0  0  0  0
  4 15  1  0  0  0  0
  5 12  1  0  0  0  0
  5 13  2  0  0  0  0
  6  8  2  0  0  0  0
  6  9  1  0  0  0  0
  7 11  1  0  0  0  0
  7 15  1  0  0  0  0
  8 13  1  0  0  0  0
  8 14  1  0  0  0  0
  9 10  1  0  0  0  0
 10 14  1  0  0  0  0
 11 14  1  0  0  0  0
  1 16  1  0  0  0  0
  2 17  1  0  0  0  0
  3 18  1  0  0  0  0
  4 19  1  0  0  0  0
  5 20  1  0  0  0  0
  9 21  1  0  0  0  0
  9 22  1  0  0  0  0
 10 23  1  0  0  0  0
 10 24  1  0  0  0  0
 11 25  1  0  0  0  0
 11 26  1  0  0  0  0
M  END
> <HYBRID receptor title>
5S18(A) > WOY(A-201)

> <HYBRID receptor filename>
data/docking/5s18.oedu

> <HYBRID Chemgauss4 score>
-7.143977

> <HYBRID receptor title>
5S18(A) > WOY(A-201)

> <HYBRID receptor filename>
data/docking/5s18.oedu

> <Dock Type>
Hybrid

$$$$
MOL0173
  -OEChem-07032400353D

 28 30  0     0  0  0  0  0  0999 V2000
   -2.7525   15.2058    1.1951 C   0  0  0  0  0  0  0  0  0  0  0  0
   -0.5227   14.9216    0.7780 C   0  0  0  0  0  0  0  0  0  0  0  0
   -3.0012   15.1945   -0.1536 C   0  0  0  0  0  0  0  0  0  0  0  0
   -1.9164   15.0365   -0.9937 C   0  0  0  0  0  0  0  0  0  0  0  0
   -1.5150   14.9119   -3.4237 C   0  0  0  0  0  0  0  0  0  0  0  0
   -4.2866   15.3283   -0.8894 C   0  0  0  0  0  0  0  0  0  0  0  0
    1.7876   13.7065   -3.6669 C   0  0  0  0  0  0  0  0  0  0  0  0
    0.4571   13.4589   -4.4026 C   0  0  0  0  0  0  0  0  0  0  0  0
    1.0639   14.8154   -2.8807 C   0  0  0  0  0  0  0  0  0  0  0  0
   -3.8209   15.2260   -2.3488 C   0  0  0  0  0  0  0  0  0  0  0  0
   -0.2635   14.0676   -3.1712 C   0  0  0  0  0  0  0  0  0  0  0  0
   -1.5067   15.0695    1.6960 N   0  0  0  0  0  0  0  0  0  0  0  0
   -0.6516   14.8960   -0.5653 N   0  0  0  0  0  0  0  0  0  0  0  0
   -2.3551   15.0482   -2.3321 N   0  0  0  0  0  0  0  0  0  0  0  0
   -1.7088   15.4082   -4.5343 O   0  0  0  0  0  0  0  0  0  0  0  0
   -3.5440   15.3246    1.9254 H   0  0  0  0  0  0  0  0  0  0  0  0
    0.4826   14.8115    1.1669 H   0  0  0  0  0  0  0  0  0  0  0  0
   -4.9727   14.5148   -0.6349 H   0  0  0  0  0  0  0  0  0  0  0  0
   -4.7558   16.2963   -0.6905 H   0  0  0  0  0  0  0  0  0  0  0  0
    2.1108   12.8640   -3.0448 H   0  0  0  0  0  0  0  0  0  0  0  0
    2.6235   14.0323   -4.2906 H   0  0  0  0  0  0  0  0  0  0  0  0
    0.3469   14.0402   -5.3259 H   0  0  0  0  0  0  0  0  0  0  0  0
    0.2252   12.4113   -4.6140 H   0  0  0  0  0  0  0  0  0  0  0  0
    1.3371   14.8974   -1.8250 H   0  0  0  0  0  0  0  0  0  0  0  0
    1.1372   15.8065   -3.3443 H   0  0  0  0  0  0  0  0  0  0  0  0
   -4.2783   14.3719   -2.8607 H   0  0  0  0  0  0  0  0  0  0  0  0
   -4.0637   16.1320   -2.9152 H   0  0  0  0  0  0  0  0  0  0  0  0
   -0.4865   13.3123   -2.4090 H   0  0  0  0  0  0  0  0  0  0  0  0
  1  3  1  0  0  0  0
  1 12  2  0  0  0  0
  2 12  1  0  0  0  0
  2 13  2  0  0  0  0
  3  4  2  0  0  0  0
  3  6  1  0  0  0  0
  4 13  1  0  0  0  0
  4 14  1  0  0  0  0
  5 11  1  0  0  0  0
  5 14  1  0  0  0  0
  5 15  2  0  0  0  0
  6 10  1  0  0  0  0
  7  8  1  0  0  0  0
  7  9  1  0  0  0  0
  8 11  1  0  0  0  0
  9 11  1  0  0  0  0
 10 14  1  0  0  0  0
  1 16  1  0  0  0  0
  2 17  1  0  0  0  0
  6 18  1  0  0  0  0
  6 19  1  0  0  0  0
  7 20  1  0  0  0  0
  7 21  1  0  0  0  0
  8 22  1  0  0  0  0
  8 23  1  0  0  0  0
  9 24  1  0  0  0  0
  9 25  1  0  0  0  0
 10 26  1  0  0  0  0
 10 27  1  0  0  0  0
 11 28  1  0  0  0  0
M  END
> <HYBRID receptor title>
5S18(A) > WOY(A-201)

> <HYBRID receptor filename>
data/docking/5s18.oedu

> <HYBRID Chemgauss4 score>
-7.140822

> <HYBRID receptor title>
5S18(A) > WOY(A-201)

> <HYBRID receptor filename>
data/docking/5s18.oedu

> <Dock Type>
Hybrid

$$$$
MOL0215
  -OEChem-07032400353D

 25 26  0     0  0  0  0  0  0999 V2000
   -3.0638   15.4089    1.1322 C   0  0  0  0  0  0  0  0  0  0  0  0
   -0.8678   14.8977    0.7536 C   0  0  0  0  0  0  0  0  0  0  0  0
   -3.3468   15.1465   -0.1828 C   0  0  0  0  0  0  0  0  0  0  0  0
   -2.2944   14.7516   -0.9865 C   0  0  0  0  0  0  0  0  0  0  0  0
   -1.9803   14.1186   -3.3551 C   0  0  0  0  0  0  0  0  0  0  0  0
   -4.6387   15.2155   -0.9177 C   0  0  0  0  0  0  0  0  0  0  0  0
   -4.2158   14.7935   -2.3316 C   0  0  0  0  0  0  0  0  0  0  0  0
    0.1744   15.6275   -4.4809 C   0  0  0  0  0  0  0  0  0  0  0  0
    0.3080   14.2004   -3.9936 C   0  0  0  0  0  0  0  0  0  0  0  0
   -1.8168   15.2919    1.6347 N   0  0  0  0  0  0  0  0  0  0  0  0
   -1.0308   14.6135   -0.5550 N   0  0  0  0  0  0  0  0  0  0  0  0
   -2.7666   14.5265   -2.2915 N   0  0  0  0  0  0  0  0  0  0  0  0
   -2.3842   13.9189   -4.4975 O   0  0  0  0  0  0  0  0  0  0  0  0
   -0.6729   13.9605   -2.9781 O   0  0  0  0  0  0  0  0  0  0  0  0
   -3.8272   15.7235    1.8337 H   0  0  0  0  0  0  0  0  0  0  0  0
    0.1375   14.7993    1.1455 H   0  0  0  0  0  0  0  0  0  0  0  0
   -5.3687   14.5171   -0.4979 H   0  0  0  0  0  0  0  0  0  0  0  0
   -5.0408   16.2330   -0.9116 H   0  0  0  0  0  0  0  0  0  0  0  0
   -4.7350   13.8862   -2.6604 H   0  0  0  0  0  0  0  0  0  0  0  0
   -4.4109   15.5809   -3.0685 H   0  0  0  0  0  0  0  0  0  0  0  0
   -0.8179   15.8039   -4.9054 H   0  0  0  0  0  0  0  0  0  0  0  0
    0.3382   16.3326   -3.6595 H   0  0  0  0  0  0  0  0  0  0  0  0
    0.9289   15.8465   -5.2433 H   0  0  0  0  0  0  0  0  0  0  0  0
    1.3023   14.0307   -3.5703 H   0  0  0  0  0  0  0  0  0  0  0  0
    0.1433   13.4966   -4.8154 H   0  0  0  0  0  0  0  0  0  0  0  0
  1  3  1  0  0  0  0
  1 10  2  0  0  0  0
  2 10  1  0  0  0  0
  2 11  2  0  0  0  0
  3  4  2  0  0  0  0
  3  6  1  0  0  0  0
  4 11  1  0  0  0  0
  4 12  1  0  0  0  0
  5 12  1  0  0  0  0
  5 13  2  0  0  0  0
  5 14  1  0  0  0  0
  6  7  1  0  0  0  0
  7 12  1  0  0  0  0
  8  9  1  0  0  0  0
  9 14  1  0  0  0  0
  1 15  1  0  0  0  0
  2 16  1  0  0  0  0
  6 17  1  0  0  0  0
  6 18  1  0  0  0  0
  7 19  1  0  0  0  0
  7 20  1  0  0  0  0
  8 21  1  0  0  0  0
  8 22  1  0  0  0  0
  8 23  1  0  0  0  0
  9 24  1  0  0  0  0
  9 25  1  0  0  0  0
M  END
> <HYBRID receptor title>
5S18(A) > WOY(A-201)

> <HYBRID receptor filename>
data/docking/5s18.oedu

> <HYBRID Chemgauss4 score>
-7.126218

> <HYBRID receptor title>
5S18(A) > WOY(A-201)

> <HYBRID receptor filename>
data/docking/5s18.oedu

> <Dock Type>
Hybrid

$$$$
MOL0204
  -OEChem-07032400353D

 26 27  0     1  0  0  0  0  0999 V2000
   -2.4609   15.1918    0.9626 C   0  0  0  0  0  0  0  0  0  0  0  0
   -0.3136   14.4383    0.7606 C   0  0  0  0  0  0  0  0  0  0  0  0
   -2.6291   15.0406   -0.3892 C   0  0  0  0  0  0  0  0  0  0  0  0
   -1.5606   14.5561   -1.1269 C   0  0  0  0  0  0  0  0  0  0  0  0
   -3.8147   15.2755   -1.2516 C   0  0  0  0  0  0  0  0  0  0  0  0
   -3.1969   15.1340   -2.6565 C   0  0  0  0  0  0  0  0  0  0  0  0
    0.6190   11.3058   -3.1751 C   0  0  0  0  0  0  0  0  0  0  0  0
   -1.0406   14.1891   -3.5959 C   0  0  0  0  0  0  0  0  0  0  0  0
   -1.3400   12.8669   -4.2891 C   0  0  0  0  0  0  0  0  0  0  0  0
   -1.2946   14.8973    1.5721 N   0  0  0  0  0  0  0  0  0  0  0  0
   -0.3751   14.2438   -0.5746 N   0  0  0  0  0  0  0  0  0  0  0  0
   -1.9121   14.4482   -2.5030 N   0  0  1  0  0  0  0  0  0  0  0  0
   -1.1818   11.4532   -3.1568 S   0  0  0  0  0  0  0  0  0  0  0  0
   -3.2530   15.5556    1.6059 H   0  0  0  0  0  0  0  0  0  0  0  0
    0.6298   14.2011    1.2369 H   0  0  0  0  0  0  0  0  0  0  0  0
   -4.6007   14.5338   -1.0850 H   0  0  0  0  0  0  0  0  0  0  0  0
   -4.2058   16.2858   -1.0940 H   0  0  0  0  0  0  0  0  0  0  0  0
   -3.8593   14.5305   -3.2906 H   0  0  0  0  0  0  0  0  0  0  0  0
   -3.0727   16.1097   -3.1380 H   0  0  0  0  0  0  0  0  0  0  0  0
    0.9309   10.4801   -2.5305 H   0  0  0  0  0  0  0  0  0  0  0  0
    0.9653   11.1147   -4.1936 H   0  0  0  0  0  0  0  0  0  0  0  0
    1.0712   12.2322   -2.8116 H   0  0  0  0  0  0  0  0  0  0  0  0
   -1.1045   15.0367   -4.2868 H   0  0  0  0  0  0  0  0  0  0  0  0
   -0.0244   14.1663   -3.1880 H   0  0  0  0  0  0  0  0  0  0  0  0
   -2.3636   12.8752   -4.6766 H   0  0  0  0  0  0  0  0  0  0  0  0
   -0.6595   12.7096   -5.1318 H   0  0  0  0  0  0  0  0  0  0  0  0
  1  3  1  0  0  0  0
  1 10  2  0  0  0  0
  2 10  1  0  0  0  0
  2 11  2  0  0  0  0
  3  4  2  0  0  0  0
  3  5  1  0  0  0  0
  4 11  1  0  0  0  0
  4 12  1  0  0  0  0
  5  6  1  0  0  0  0
  6 12  1  0  0  0  0
  7 13  1  0  0  0  0
  8  9  1  0  0  0  0
  8 12  1  0  0  0  0
  9 13  1  0  0  0  0
  1 14  1  0  0  0  0
  2 15  1  0  0  0  0
  5 16  1  0  0  0  0
  5 17  1  0  0  0  0
  6 18  1  0  0  0  0
  6 19  1  0  0  0  0
  7 20  1  0  0  0  0
  7 21  1  0  0  0  0
  7 22  1  0  0  0  0
  8 23  1  0  0  0  0
  8 24  1  0  0  0  0
  9 25  1  0  0  0  0
  9 26  1  0  0  0  0
M  END
> <HYBRID receptor title>
5S18(A) > WOY(A-201)

> <HYBRID receptor filename>
data/docking/5s18.oedu

> <HYBRID Chemgauss4 score>
-7.112343

> <HYBRID receptor title>
5S18(A) > WOY(A-201)

> <HYBRID receptor filename>
data/docking/5s18.oedu

> <Dock Type>
Hybrid

$$$$
MOL0026
  -OEChem-07032400353D

 22 23  0     1  0  0  0  0  0999 V2000
   -2.4130   15.0796    1.1431 C   0  0  0  0  0  0  0  0  0  0  0  0
   -0.1663   14.8071    0.8303 C   0  0  0  0  0  0  0  0  0  0  0  0
   -2.6172   14.8297   -0.1890 C   0  0  0  0  0  0  0  0  0  0  0  0
   -1.5098   14.5565   -0.9763 C   0  0  0  0  0  0  0  0  0  0  0  0
   -3.8708   14.7565   -0.9813 C   0  0  0  0  0  0  0  0  0  0  0  0
   -3.3149   14.6861   -2.4170 C   0  0  0  0  0  0  0  0  0  0  0  0
   -1.0574   14.1934   -3.4591 C   0  0  0  0  0  0  0  0  0  0  0  0
   -0.6324   12.7573   -3.6095 C   0  0  0  0  0  0  0  0  0  0  0  0
   -1.1788   15.0783    1.6865 N   0  0  0  0  0  0  0  0  0  0  0  0
   -0.2562   14.5394   -0.4904 N   0  0  0  0  0  0  0  0  0  0  0  0
   -1.9034   14.3075   -2.3223 N   0  0  1  0  0  0  0  0  0  0  0  0
    0.1670   12.5917   -4.6851 F   0  0  0  0  0  0  0  0  0  0  0  0
    0.0369   12.3257   -2.5192 F   0  0  0  0  0  0  0  0  0  0  0  0
   -1.7102   11.9578   -3.7723 F   0  0  0  0  0  0  0  0  0  0  0  0
   -3.2296   15.2912    1.8226 H   0  0  0  0  0  0  0  0  0  0  0  0
    0.8308   14.8062    1.2532 H   0  0  0  0  0  0  0  0  0  0  0  0
   -4.4621   13.8692   -0.7387 H   0  0  0  0  0  0  0  0  0  0  0  0
   -4.4672   15.6626   -0.8346 H   0  0  0  0  0  0  0  0  0  0  0  0
   -3.8604   13.9220   -2.9857 H   0  0  0  0  0  0  0  0  0  0  0  0
   -3.4370   15.6408   -2.9395 H   0  0  0  0  0  0  0  0  0  0  0  0
   -1.6096   14.5330   -4.3395 H   0  0  0  0  0  0  0  0  0  0  0  0
   -0.1908   14.8453   -3.3150 H   0  0  0  0  0  0  0  0  0  0  0  0
  1  3  1  0  0  0  0
  1  9  2  0  0  0  0
  2  9  1  0  0  0  0
  2 10  2  0  0  0  0
  3  4  2  0  0  0  0
  3  5  1  0  0  0  0
  4 10  1  0  0  0  0
  4 11  1  0  0  0  0
  5  6  1  0  0  0  0
  6 11  1  0  0  0  0
  7  8  1  0  0  0  0
  7 11  1  0  0  0  0
  8 12  1  0  0  0  0
  8 13  1  0  0  0  0
  8 14  1  0  0  0  0
  1 15  1  0  0  0  0
  2 16  1  0  0  0  0
  5 17  1  0  0  0  0
  5 18  1  0  0  0  0
  6 19  1  0  0  0  0
  6 20  1  0  0  0  0
  7 21  1  0  0  0  0
  7 22  1  0  0  0  0
M  END
> <HYBRID receptor title>
5S18(A) > WOY(A-201)

> <HYBRID receptor filename>
data/docking/5s18.oedu

> <HYBRID Chemgauss4 score>
-7.090571

> <HYBRID receptor title>
5S18(A) > WOY(A-201)

> <HYBRID receptor filename>
data/docking/5s18.oedu

> <Dock Type>
Hybrid

$$$$
MOL0158
  -OEChem-07032400353D

 20 21  0     0  0  0  0  0  0999 V2000
    0.0376   14.6673    1.1448 C   0  0  0  0  0  0  0  0  0  0  0  0
   -2.2270   14.9176   -0.2159 C   0  0  0  0  0  0  0  0  0  0  0  0
   -1.0543   14.6288   -0.8624 C   0  0  0  0  0  0  0  0  0  0  0  0
   -2.1873   15.0777    1.1589 C   0  0  0  0  0  0  0  0  0  0  0  0
   -3.6026   15.1310   -0.7395 C   0  0  0  0  0  0  0  0  0  0  0  0
   -4.4156   15.2656    0.5668 C   0  0  0  0  0  0  0  0  0  0  0  0
   -1.0156   14.4542   -2.3407 C   0  0  0  0  0  0  0  0  0  0  0  0
    0.1107   14.4928   -0.1964 N   0  0  0  0  0  0  0  0  0  0  0  0
   -1.0588   14.9588    1.8774 N   0  0  0  0  0  0  0  0  0  0  0  0
   -3.4612   15.3772    1.6569 N   0  0  0  0  0  0  0  0  0  0  0  0
   -1.5749   13.1916   -2.6840 O   0  0  0  0  0  0  0  0  0  0  0  0
    0.9671   14.5610    1.6916 H   0  0  0  0  0  0  0  0  0  0  0  0
   -3.6512   16.0534   -1.3269 H   0  0  0  0  0  0  0  0  0  0  0  0
   -3.9502   14.2820   -1.3353 H   0  0  0  0  0  0  0  0  0  0  0  0
   -5.0789   16.1360    0.5314 H   0  0  0  0  0  0  0  0  0  0  0  0
   -5.0384   14.3759    0.7163 H   0  0  0  0  0  0  0  0  0  0  0  0
   -1.5869   15.2416   -2.8523 H   0  0  0  0  0  0  0  0  0  0  0  0
    0.0149   14.4970   -2.7226 H   0  0  0  0  0  0  0  0  0  0  0  0
   -3.6839   15.4913    2.6332 H   0  0  0  0  0  0  0  0  0  0  0  0
   -1.5294   13.1208   -3.6506 H   0  0  0  0  0  0  0  0  0  0  0  0
  1  8  2  0  0  0  0
  1  9  1  0  0  0  0
  2  3  2  0  0  0  0
  2  4  1  0  0  0  0
  2  5  1  0  0  0  0
  3  7  1  0  0  0  0
  3  8  1  0  0  0  0
  4  9  2  0  0  0  0
  4 10  1  0  0  0  0
  5  6  1  0  0  0  0
  6 10  1  0  0  0  0
  7 11  1  0  0  0  0
  1 12  1  0  0  0  0
  5 13  1  0  0  0  0
  5 14  1  0  0  0  0
  6 15  1  0  0  0  0
  6 16  1  0  0  0  0
  7 17  1  0  0  0  0
  7 18  1  0  0  0  0
 10 19  1  0  0  0  0
 11 20  1  0  0  0  0
M  END
> <HYBRID receptor title>
5S18(A) > WOY(A-201)

> <HYBRID receptor filename>
data/docking/5s18.oedu

> <HYBRID Chemgauss4 score>
-7.082311

> <HYBRID receptor title>
5S18(A) > WOY(A-201)

> <HYBRID receptor filename>
data/docking/5s18.oedu

> <Dock Type>
Hybrid

$$$$
MOL0146
  -OEChem-07032400353D

 26 27  0     1  0  0  0  0  0999 V2000
   -2.4771   14.9999    1.1648 C   0  0  0  0  0  0  0  0  0  0  0  0
   -0.2314   14.5837    1.1039 C   0  0  0  0  0  0  0  0  0  0  0  0
   -2.5240   14.8838   -0.2001 C   0  0  0  0  0  0  0  0  0  0  0  0
   -1.3447   14.5961   -0.8689 C   0  0  0  0  0  0  0  0  0  0  0  0
    1.0523   12.5680   -3.3975 C   0  0  0  0  0  0  0  0  0  0  0  0
   -0.2157   12.9854   -3.5399 C   0  0  0  0  0  0  0  0  0  0  0  0
   -3.6673   14.9768   -1.1429 C   0  0  0  0  0  0  0  0  0  0  0  0
   -2.9371   14.9897   -2.5000 C   0  0  0  0  0  0  0  0  0  0  0  0
   -1.3180   12.0292   -3.8991 C   0  0  0  0  0  0  0  0  0  0  0  0
   -0.6013   14.4177   -3.3012 C   0  0  0  0  0  0  0  0  0  0  0  0
   -1.3257   14.8562    1.8521 N   0  0  0  0  0  0  0  0  0  0  0  0
   -0.1679   14.4402   -0.2376 N   0  0  0  0  0  0  0  0  0  0  0  0
   -1.5773   14.4967   -2.2706 N   0  0  1  0  0  0  0  0  0  0  0  0
   -3.3588   15.2135    1.7568 H   0  0  0  0  0  0  0  0  0  0  0  0
    0.7008   14.4692    1.6433 H   0  0  0  0  0  0  0  0  0  0  0  0
    1.8489   13.2576   -3.1382 H   0  0  0  0  0  0  0  0  0  0  0  0
    1.3212   11.5260   -3.5342 H   0  0  0  0  0  0  0  0  0  0  0  0
   -4.3416   14.1198   -1.0609 H   0  0  0  0  0  0  0  0  0  0  0  0
   -4.2172   15.9098   -0.9834 H   0  0  0  0  0  0  0  0  0  0  0  0
   -3.4536   14.3224   -3.2021 H   0  0  0  0  0  0  0  0  0  0  0  0
   -2.9284   15.9929   -2.9391 H   0  0  0  0  0  0  0  0  0  0  0  0
   -1.7664   11.6102   -2.9924 H   0  0  0  0  0  0  0  0  0  0  0  0
   -0.9548   11.1930   -4.5058 H   0  0  0  0  0  0  0  0  0  0  0  0
   -2.0997   12.5379   -4.4710 H   0  0  0  0  0  0  0  0  0  0  0  0
   -1.0339   14.8801   -4.1950 H   0  0  0  0  0  0  0  0  0  0  0  0
    0.2647   15.0151   -2.9994 H   0  0  0  0  0  0  0  0  0  0  0  0
  1  3  1  0  0  0  0
  1 11  2  0  0  0  0
  2 11  1  0  0  0  0
  2 12  2  0  0  0  0
  3  4  2  0  0  0  0
  3  7  1  0  0  0  0
  4 12  1  0  0  0  0
  4 13  1  0  0  0  0
  5  6  2  0  0  0  0
  6  9  1  0  0  0  0
  6 10  1  0  0  0  0
  7  8  1  0  0  0  0
  8 13  1  0  0  0  0
 10 13  1  0  0  0  0
  1 14  1  0  0  0  0
  2 15  1  0  0  0  0
  5 16  1  0  0  0  0
  5 17  1  0  0  0  0
  7 18  1  0  0  0  0
  7 19  1  0  0  0  0
  8 20  1  0  0  0  0
  8 21  1  0  0  0  0
  9 22  1  0  0  0  0
  9 23  1  0  0  0  0
  9 24  1  0  0  0  0
 10 25  1  0  0  0  0
 10 26  1  0  0  0  0
M  END
> <HYBRID receptor title>
5S18(A) > WOY(A-201)

> <HYBRID receptor filename>
data/docking/5s18.oedu

> <HYBRID Chemgauss4 score>
-7.062340

> <HYBRID receptor title>
5S18(A) > WOY(A-201)

> <HYBRID receptor filename>
data/docking/5s18.oedu

> <Dock Type>
Hybrid

$$$$
MOL0134
  -OEChem-07032400353D

 18 19  0     0  0  0  0  0  0999 V2000
   -0.2207   14.7290    1.0450 C   0  0  0  0  0  0  0  0  0  0  0  0
   -2.6521   14.8780   -0.0079 C   0  0  0  0  0  0  0  0  0  0  0  0
   -2.4151   15.2083    1.3158 C   0  0  0  0  0  0  0  0  0  0  0  0
   -1.5872   14.4733   -0.7688 C   0  0  0  0  0  0  0  0  0  0  0  0
   -4.0850   15.0676   -0.3580 C   0  0  0  0  0  0  0  0  0  0  0  0
   -4.7021   15.3911    1.0204 C   0  0  0  0  0  0  0  0  0  0  0  0
   -1.1976   15.1449    1.8793 N   0  0  0  0  0  0  0  0  0  0  0  0
   -0.3413   14.3851   -0.2596 N   0  0  0  0  0  0  0  0  0  0  0  0
   -3.6010   15.6084    1.9434 N   0  0  0  0  0  0  0  0  0  0  0  0
   -1.8442   14.1482   -2.1355 N   0  3  0  0  0  0  0  0  0  0  0  0
   -3.0142   14.2476   -2.5658 O   0  5  0  0  0  0  0  0  0  0  0  0
   -0.8895   13.7758   -2.8530 O   0  0  0  0  0  0  0  0  0  0  0  0
    0.7756   14.6634    1.4661 H   0  0  0  0  0  0  0  0  0  0  0  0
   -4.2061   15.9095   -1.0466 H   0  0  0  0  0  0  0  0  0  0  0  0
   -4.5276   14.1617   -0.7826 H   0  0  0  0  0  0  0  0  0  0  0  0
   -5.3499   16.2719    0.9662 H   0  0  0  0  0  0  0  0  0  0  0  0
   -5.3109   14.5485    1.3689 H   0  0  0  0  0  0  0  0  0  0  0  0
   -3.6808   15.8522    2.9181 H   0  0  0  0  0  0  0  0  0  0  0  0
  1  7  1  0  0  0  0
  1  8  2  0  0  0  0
  2  3  1  0  0  0  0
  2  4  2  0  0  0  0
  2  5  1  0  0  0  0
  3  7  2  0  0  0  0
  3  9  1  0  0  0  0
  4  8  1  0  0  0  0
  4 10  1  0  0  0  0
  5  6  1  0  0  0  0
  6  9  1  0  0  0  0
 10 11  1  0  0  0  0
 10 12  2  0  0  0  0
  1 13  1  0  0  0  0
  5 14  1  0  0  0  0
  5 15  1  0  0  0  0
  6 16  1  0  0  0  0
  6 17  1  0  0  0  0
  9 18  1  0  0  0  0
M  CHG  2  10   1  11  -1
M  END
> <HYBRID receptor title>
5S18(A) > WOY(A-201)

> <HYBRID receptor filename>
data/docking/5s18.oedu

> <HYBRID Chemgauss4 score>
-7.058444

> <HYBRID receptor title>
5S18(A) > WOY(A-201)

> <HYBRID receptor filename>
data/docking/5s18.oedu

> <Dock Type>
Hybrid

$$$$
MOL0151
  -OEChem-07032400353D

 21 22  0     0  0  0  0  0  0999 V2000
   -0.0040   14.7572    0.9872 C   0  0  0  0  0  0  0  0  0  0  0  0
   -2.2686   15.0075   -0.3736 C   0  0  0  0  0  0  0  0  0  0  0  0
   -1.0959   14.7188   -1.0201 C   0  0  0  0  0  0  0  0  0  0  0  0
   -2.2289   15.1676    1.0013 C   0  0  0  0  0  0  0  0  0  0  0  0
   -3.6441   15.2210   -0.8972 C   0  0  0  0  0  0  0  0  0  0  0  0
   -4.4571   15.3556    0.4091 C   0  0  0  0  0  0  0  0  0  0  0  0
   -1.0572   14.5442   -2.4983 C   0  0  0  0  0  0  0  0  0  0  0  0
    0.0691   14.5828   -0.3541 N   0  0  0  0  0  0  0  0  0  0  0  0
   -1.1003   15.0488    1.7197 N   0  0  0  0  0  0  0  0  0  0  0  0
   -3.5028   15.4671    1.4992 N   0  0  0  0  0  0  0  0  0  0  0  0
   -1.6031   13.2776   -2.9173 N   0  0  0  0  0  0  0  0  0  0  0  0
    0.9255   14.6509    1.5339 H   0  0  0  0  0  0  0  0  0  0  0  0
   -3.6928   16.1433   -1.4846 H   0  0  0  0  0  0  0  0  0  0  0  0
   -3.9918   14.3719   -1.4929 H   0  0  0  0  0  0  0  0  0  0  0  0
   -5.1205   16.2259    0.3737 H   0  0  0  0  0  0  0  0  0  0  0  0
   -5.0799   14.4658    0.5586 H   0  0  0  0  0  0  0  0  0  0  0  0
   -1.6293   15.3328   -3.0080 H   0  0  0  0  0  0  0  0  0  0  0  0
   -0.0298   14.5998   -2.8865 H   0  0  0  0  0  0  0  0  0  0  0  0
   -3.7254   15.5812    2.4756 H   0  0  0  0  0  0  0  0  0  0  0  0
   -1.5478   13.1932   -3.9349 H   0  0  0  0  0  0  0  0  0  0  0  0
   -2.5997   13.2346   -2.6912 H   0  0  0  0  0  0  0  0  0  0  0  0
  1  8  2  0  0  0  0
  1  9  1  0  0  0  0
  2  3  2  0  0  0  0
  2  4  1  0  0  0  0
  2  5  1  0  0  0  0
  3  7  1  0  0  0  0
  3  8  1  0  0  0  0
  4  9  2  0  0  0  0
  4 10  1  0  0  0  0
  5  6  1  0  0  0  0
  6 10  1  0  0  0  0
  7 11  1  0  0  0  0
  1 12  1  0  0  0  0
  5 13  1  0  0  0  0
  5 14  1  0  0  0  0
  6 15  1  0  0  0  0
  6 16  1  0  0  0  0
  7 17  1  0  0  0  0
  7 18  1  0  0  0  0
 10 19  1  0  0  0  0
 11 20  1  0  0  0  0
 11 21  1  0  0  0  0
M  END
> <HYBRID receptor title>
5S18(A) > WOY(A-201)

> <HYBRID receptor filename>
data/docking/5s18.oedu

> <HYBRID Chemgauss4 score>
-7.054524

> <HYBRID receptor title>
5S18(A) > WOY(A-201)

> <HYBRID receptor filename>
data/docking/5s18.oedu

> <Dock Type>
Hybrid

$$$$
MOL0013
  -OEChem-07032400353D

 16 17  0     0  0  0  0  0  0999 V2000
   -0.0675   14.9242    0.8405 C   0  0  0  0  0  0  0  0  0  0  0  0
   -2.4521   15.1484   -0.3023 C   0  0  0  0  0  0  0  0  0  0  0  0
   -2.2937   15.2566    1.0691 C   0  0  0  0  0  0  0  0  0  0  0  0
   -1.3340   14.9256   -1.0617 C   0  0  0  0  0  0  0  0  0  0  0  0
   -3.8752   15.3343   -0.6924 C   0  0  0  0  0  0  0  0  0  0  0  0
   -4.5710   15.3902    0.6853 C   0  0  0  0  0  0  0  0  0  0  0  0
   -1.1019   15.1492    1.6790 N   0  0  0  0  0  0  0  0  0  0  0  0
   -0.1101   14.8043   -0.5080 N   0  0  0  0  0  0  0  0  0  0  0  0
   -3.5262   15.4925    1.6901 N   0  0  0  0  0  0  0  0  0  0  0  0
   -1.3819   14.7865   -2.7670 Cl  0  0  0  0  0  0  0  0  0  0  0  0
    0.9101   14.8295    1.2982 H   0  0  0  0  0  0  0  0  0  0  0  0
   -4.0059   16.2761   -1.2346 H   0  0  0  0  0  0  0  0  0  0  0  0
   -4.2494   14.4969   -1.2884 H   0  0  0  0  0  0  0  0  0  0  0  0
   -5.2603   16.2388    0.7457 H   0  0  0  0  0  0  0  0  0  0  0  0
   -5.1509   14.4750    0.8526 H   0  0  0  0  0  0  0  0  0  0  0  0
   -3.6634   15.5618    2.6862 H   0  0  0  0  0  0  0  0  0  0  0  0
  1  7  1  0  0  0  0
  1  8  2  0  0  0  0
  2  3  1  0  0  0  0
  2  4  2  0  0  0  0
  2  5  1  0  0  0  0
  3  7  2  0  0  0  0
  3  9  1  0  0  0  0
  4  8  1  0  0  0  0
  4 10  1  0  0  0  0
  5  6  1  0  0  0  0
  6  9  1  0  0  0  0
  1 11  1  0  0  0  0
  5 12  1  0  0  0  0
  5 13  1  0  0  0  0
  6 14  1  0  0  0  0
  6 15  1  0  0  0  0
  9 16  1  0  0  0  0
M  END
> <HYBRID receptor title>
5S18(A) > WOY(A-201)

> <HYBRID receptor filename>
data/docking/5s18.oedu

> <HYBRID Chemgauss4 score>
-7.051178

> <HYBRID receptor title>
5S18(A) > WOY(A-201)

> <HYBRID receptor filename>
data/docking/5s18.oedu

> <Dock Type>
Hybrid

$$$$
MOL0028
  -OEChem-07032400353D

 25 26  0     1  0  0  0  0  0999 V2000
   -2.2980   15.2582    1.1493 C   0  0  0  0  0  0  0  0  0  0  0  0
   -0.1146   14.6241    0.9298 C   0  0  0  0  0  0  0  0  0  0  0  0
   -2.4931   15.0047   -0.1838 C   0  0  0  0  0  0  0  0  0  0  0  0
   -1.4116   14.5565   -0.9251 C   0  0  0  0  0  0  0  0  0  0  0  0
   -3.6995   15.1626   -1.0353 C   0  0  0  0  0  0  0  0  0  0  0  0
   -3.2460   14.4626   -2.3308 C   0  0  0  0  0  0  0  0  0  0  0  0
   -0.6609   15.8852   -4.5731 C   0  0  0  0  0  0  0  0  0  0  0  0
   -0.0119   14.6604   -3.9443 C   0  0  0  0  0  0  0  0  0  0  0  0
   -1.0257   13.7207   -3.3025 C   0  0  0  0  0  0  0  0  0  0  0  0
   -1.1013   15.0702    1.7415 N   0  0  0  0  0  0  0  0  0  0  0  0
   -0.1950   14.3517   -0.3900 N   0  0  0  0  0  0  0  0  0  0  0  0
   -1.7860   14.3586   -2.2844 N   0  0  2  0  0  0  0  0  0  0  0  0
   -3.0920   15.6222    1.7899 H   0  0  0  0  0  0  0  0  0  0  0  0
    0.8526   14.4693    1.3935 H   0  0  0  0  0  0  0  0  0  0  0  0
   -4.5770   14.6734   -0.6036 H   0  0  0  0  0  0  0  0  0  0  0  0
   -3.9041   16.2233   -1.2121 H   0  0  0  0  0  0  0  0  0  0  0  0
   -3.6823   13.4564   -2.3776 H   0  0  0  0  0  0  0  0  0  0  0  0
   -3.5782   15.0114   -3.2185 H   0  0  0  0  0  0  0  0  0  0  0  0
   -1.2413   16.4307   -3.8222 H   0  0  0  0  0  0  0  0  0  0  0  0
   -1.3391   15.5973   -5.3827 H   0  0  0  0  0  0  0  0  0  0  0  0
    0.0894   16.5702   -4.9799 H   0  0  0  0  0  0  0  0  0  0  0  0
    0.5646   14.1263   -4.7087 H   0  0  0  0  0  0  0  0  0  0  0  0
    0.6971   14.9940   -3.1775 H   0  0  0  0  0  0  0  0  0  0  0  0
   -0.5348   12.8492   -2.8582 H   0  0  0  0  0  0  0  0  0  0  0  0
   -1.7355   13.3649   -4.0561 H   0  0  0  0  0  0  0  0  0  0  0  0
  1  3  1  0  0  0  0
  1 10  2  0  0  0  0
  2 10  1  0  0  0  0
  2 11  2  0  0  0  0
  3  4  2  0  0  0  0
  3  5  1  0  0  0  0
  4 11  1  0  0  0  0
  4 12  1  0  0  0  0
  5  6  1  0  0  0  0
  6 12  1  0  0  0  0
  7  8  1  0  0  0  0
  8  9  1  0  0  0  0
  9 12  1  0  0  0  0
  1 13  1  0  0  0  0
  2 14  1  0  0  0  0
  5 15  1  0  0  0  0
  5 16  1  0  0  0  0
  6 17  1  0  0  0  0
  6 18  1  0  0  0  0
  7 19  1  0  0  0  0
  7 20  1  0  0  0  0
  7 21  1  0  0  0  0
  8 22  1  0  0  0  0
  8 23  1  0  0  0  0
  9 24  1  0  0  0  0
  9 25  1  0  0  0  0
M  END
> <HYBRID receptor title>
5S18(A) > WOY(A-201)

> <HYBRID receptor filename>
data/docking/5s18.oedu

> <HYBRID Chemgauss4 score>
-7.036550

> <HYBRID receptor title>
5S18(A) > WOY(A-201)

> <HYBRID receptor filename>
data/docking/5s18.oedu

> <Dock Type>
Hybrid

$$$$
MOL0007
  -OEChem-07032400353D

 18 19  0     0  0  0  0  0  0999 V2000
   -1.3860   14.8394   -0.9510 C   0  0  0  0  0  0  0  0  0  0  0  0
   -2.5682   15.0197   -0.2829 C   0  0  0  0  0  0  0  0  0  0  0  0
   -2.5293   15.0784    1.1000 C   0  0  0  0  0  0  0  0  0  0  0  0
   -0.2868   14.7825    1.0518 C   0  0  0  0  0  0  0  0  0  0  0  0
   -3.9555   15.2024   -0.7870 C   0  0  0  0  0  0  0  0  0  0  0  0
   -4.7673   15.1980    0.5270 C   0  0  0  0  0  0  0  0  0  0  0  0
   -0.2121   14.7127   -0.2989 N   0  0  0  0  0  0  0  0  0  0  0  0
   -1.3924   14.9630    1.8058 N   0  0  0  0  0  0  0  0  0  0  0  0
   -3.8139   15.2755    1.6209 N   0  0  0  0  0  0  0  0  0  0  0  0
    0.9333   14.6522    1.7518 N   0  0  0  0  0  0  0  0  0  0  0  0
   -1.3349   14.7906   -2.0317 H   0  0  0  0  0  0  0  0  0  0  0  0
   -4.0517   16.1619   -1.3044 H   0  0  0  0  0  0  0  0  0  0  0  0
   -4.2594   14.3833   -1.4451 H   0  0  0  0  0  0  0  0  0  0  0  0
   -5.4722   16.0354    0.5587 H   0  0  0  0  0  0  0  0  0  0  0  0
   -5.3452   14.2703    0.6105 H   0  0  0  0  0  0  0  0  0  0  0  0
   -4.0372   15.3063    2.6033 H   0  0  0  0  0  0  0  0  0  0  0  0
    1.7692   14.4650    1.2385 H   0  0  0  0  0  0  0  0  0  0  0  0
    0.9212   14.6441    2.7504 H   0  0  0  0  0  0  0  0  0  0  0  0
  1  2  1  0  0  0  0
  1  7  2  0  0  0  0
  2  3  2  0  0  0  0
  2  5  1  0  0  0  0
  3  8  1  0  0  0  0
  3  9  1  0  0  0  0
  4  7  1  0  0  0  0
  4  8  2  0  0  0  0
  4 10  1  0  0  0  0
  5  6  1  0  0  0  0
  6  9  1  0  0  0  0
  1 11  1  0  0  0  0
  5 12  1  0  0  0  0
  5 13  1  0  0  0  0
  6 14  1  0  0  0  0
  6 15  1  0  0  0  0
  9 16  1  0  0  0  0
 10 17  1  0  0  0  0
 10 18  1  0  0  0  0
M  END
> <HYBRID receptor title>
5S18(A) > WOY(A-201)

> <HYBRID receptor filename>
data/docking/5s18.oedu

> <HYBRID Chemgauss4 score>
-7.024841

> <HYBRID receptor title>
5S18(A) > WOY(A-201)

> <HYBRID receptor filename>
data/docking/5s18.oedu

> <Dock Type>
Hybrid

$$$$
MOL0118
  -OEChem-07032400353D

 28 29  0     1  0  0  0  0  0999 V2000
   -2.2908   15.2037    1.2773 C   0  0  0  0  0  0  0  0  0  0  0  0
   -0.0438   14.8622    1.0493 C   0  0  0  0  0  0  0  0  0  0  0  0
   -2.4253   15.1489   -0.0859 C   0  0  0  0  0  0  0  0  0  0  0  0
   -1.2826   14.9505   -0.8442 C   0  0  0  0  0  0  0  0  0  0  0  0
   -3.6228   15.3062   -0.9501 C   0  0  0  0  0  0  0  0  0  0  0  0
   -3.0619   14.8802   -2.3204 C   0  0  0  0  0  0  0  0  0  0  0  0
   -0.3075   13.1045   -3.1104 C   0  0  0  0  0  0  0  0  0  0  0  0
   -1.5111   14.6956   -4.6293 C   0  0  0  0  0  0  0  0  0  0  0  0
    0.4792   15.4760   -3.3235 C   0  0  0  0  0  0  0  0  0  0  0  0
   -0.7490   14.5586   -3.3061 C   0  0  0  0  0  0  0  0  0  0  0  0
   -1.0937   15.0577    1.8805 N   0  0  0  0  0  0  0  0  0  0  0  0
   -0.0626   14.7995   -0.2992 N   0  0  0  0  0  0  0  0  0  0  0  0
   -1.6012   14.9343   -2.2317 N   0  0  2  0  0  0  0  0  0  0  0  0
   -3.1359   15.3681    1.9346 H   0  0  0  0  0  0  0  0  0  0  0  0
    0.9243   14.7437    1.5215 H   0  0  0  0  0  0  0  0  0  0  0  0
   -4.4463   14.6585   -0.6371 H   0  0  0  0  0  0  0  0  0  0  0  0
   -3.9462   16.3519   -0.9652 H   0  0  0  0  0  0  0  0  0  0  0  0
   -3.3762   13.8523   -2.5434 H   0  0  0  0  0  0  0  0  0  0  0  0
   -3.4363   15.5246   -3.1230 H   0  0  0  0  0  0  0  0  0  0  0  0
    0.2403   12.9818   -2.1695 H   0  0  0  0  0  0  0  0  0  0  0  0
   -1.1715   12.4304   -3.0724 H   0  0  0  0  0  0  0  0  0  0  0  0
    0.3440   12.7724   -3.9259 H   0  0  0  0  0  0  0  0  0  0  0  0
   -1.8381   15.7305   -4.7917 H   0  0  0  0  0  0  0  0  0  0  0  0
   -2.4098   14.0676   -4.6358 H   0  0  0  0  0  0  0  0  0  0  0  0
   -0.8883   14.4010   -5.4811 H   0  0  0  0  0  0  0  0  0  0  0  0
    0.1878   16.5232   -3.4626 H   0  0  0  0  0  0  0  0  0  0  0  0
    1.0316   15.4162   -2.3786 H   0  0  0  0  0  0  0  0  0  0  0  0
    1.1667   15.2068   -4.1325 H   0  0  0  0  0  0  0  0  0  0  0  0
  1  3  1  0  0  0  0
  1 11  2  0  0  0  0
  2 11  1  0  0  0  0
  2 12  2  0  0  0  0
  3  4  2  0  0  0  0
  3  5  1  0  0  0  0
  4 12  1  0  0  0  0
  4 13  1  0  0  0  0
  5  6  1  0  0  0  0
  6 13  1  0  0  0  0
  7 10  1  0  0  0  0
  8 10  1  0  0  0  0
  9 10  1  0  0  0  0
 10 13  1  0  0  0  0
  1 14  1  0  0  0  0
  2 15  1  0  0  0  0
  5 16  1  0  0  0  0
  5 17  1  0  0  0  0
  6 18  1  0  0  0  0
  6 19  1  0  0  0  0
  7 20  1  0  0  0  0
  7 21  1  0  0  0  0
  7 22  1  0  0  0  0
  8 23  1  0  0  0  0
  8 24  1  0  0  0  0
  8 25  1  0  0  0  0
  9 26  1  0  0  0  0
  9 27  1  0  0  0  0
  9 28  1  0  0  0  0
M  END
> <HYBRID receptor title>
5S18(A) > WOY(A-201)

> <HYBRID receptor filename>
data/docking/5s18.oedu

> <HYBRID Chemgauss4 score>
-7.009050

> <HYBRID receptor title>
5S18(A) > WOY(A-201)

> <HYBRID receptor filename>
data/docking/5s18.oedu

> <Dock Type>
Hybrid

$$$$
MOL0043
  -OEChem-07032400353D

 16 17  0     0  0  0  0  0  0999 V2000
   -0.1700   14.7262    0.7981 C   0  0  0  0  0  0  0  0  0  0  0  0
   -2.5257   14.8614   -0.4164 C   0  0  0  0  0  0  0  0  0  0  0  0
   -2.3715   15.2361    0.9077 C   0  0  0  0  0  0  0  0  0  0  0  0
   -1.4184   14.4197   -1.0914 C   0  0  0  0  0  0  0  0  0  0  0  0
   -3.9304   15.0523   -0.8661 C   0  0  0  0  0  0  0  0  0  0  0  0
   -4.6321   15.4303    0.4569 C   0  0  0  0  0  0  0  0  0  0  0  0
   -1.1942   15.1809    1.5517 N   0  0  0  0  0  0  0  0  0  0  0  0
   -0.2095   14.3376   -0.4988 N   0  0  0  0  0  0  0  0  0  0  0  0
   -3.5910   15.6695    1.4420 N   0  0  0  0  0  0  0  0  0  0  0  0
   -1.5353   13.9047   -2.9118 Br  0  0  0  0  0  0  0  0  0  0  0  0
    0.7956   14.6659    1.2861 H   0  0  0  0  0  0  0  0  0  0  0  0
   -3.9962   15.8718   -1.5887 H   0  0  0  0  0  0  0  0  0  0  0  0
   -4.3578   14.1374   -1.2867 H   0  0  0  0  0  0  0  0  0  0  0  0
   -5.2647   16.3150    0.3300 H   0  0  0  0  0  0  0  0  0  0  0  0
   -5.2720   14.6063    0.7939 H   0  0  0  0  0  0  0  0  0  0  0  0
   -3.7314   15.9485    2.4003 H   0  0  0  0  0  0  0  0  0  0  0  0
  1  7  1  0  0  0  0
  1  8  2  0  0  0  0
  2  3  1  0  0  0  0
  2  4  2  0  0  0  0
  2  5  1  0  0  0  0
  3  7  2  0  0  0  0
  3  9  1  0  0  0  0
  4  8  1  0  0  0  0
  4 10  1  0  0  0  0
  5  6  1  0  0  0  0
  6  9  1  0  0  0  0
  1 11  1  0  0  0  0
  5 12  1  0  0  0  0
  5 13  1  0  0  0  0
  6 14  1  0  0  0  0
  6 15  1  0  0  0  0
  9 16  1  0  0  0  0
M  END
> <HYBRID receptor title>
5S18(A) > WOY(A-201)

> <HYBRID receptor filename>
data/docking/5s18.oedu

> <HYBRID Chemgauss4 score>
-7.007695

> <HYBRID receptor title>
5S18(A) > WOY(A-201)

> <HYBRID receptor filename>
data/docking/5s18.oedu

> <Dock Type>
Hybrid

$$$$
MOL0040
  -OEChem-07032400353D

 17 18  0     0  0  0  0  0  0999 V2000
   -1.6252   14.3108   -2.3851 C   0  0  0  0  0  0  0  0  0  0  0  0
   -0.2537   14.7352    0.8839 C   0  0  0  0  0  0  0  0  0  0  0  0
   -1.5617   14.5286   -0.9786 C   0  0  0  0  0  0  0  0  0  0  0  0
   -2.6735   14.7362   -0.2057 C   0  0  0  0  0  0  0  0  0  0  0  0
   -2.4903   14.9486    1.1503 C   0  0  0  0  0  0  0  0  0  0  0  0
   -4.1140   14.8089   -0.5684 C   0  0  0  0  0  0  0  0  0  0  0  0
   -4.7798   14.9185    0.8209 C   0  0  0  0  0  0  0  0  0  0  0  0
   -1.6768   14.1334   -3.5309 N   0  0  0  0  0  0  0  0  0  0  0  0
   -0.3202   14.5196   -0.4517 N   0  0  0  0  0  0  0  0  0  0  0  0
   -1.2803   14.9554    1.7332 N   0  0  0  0  0  0  0  0  0  0  0  0
   -3.7203   15.1527    1.7874 N   0  0  0  0  0  0  0  0  0  0  0  0
    0.7382   14.7310    1.3201 H   0  0  0  0  0  0  0  0  0  0  0  0
   -4.3155   15.7014   -1.1693 H   0  0  0  0  0  0  0  0  0  0  0  0
   -4.4498   13.9114   -1.0959 H   0  0  0  0  0  0  0  0  0  0  0  0
   -5.5186   15.7263    0.8425 H   0  0  0  0  0  0  0  0  0  0  0  0
   -5.2980   13.9838    1.0657 H   0  0  0  0  0  0  0  0  0  0  0  0
   -3.8382   15.2828    2.7799 H   0  0  0  0  0  0  0  0  0  0  0  0
  1  3  1  0  0  0  0
  1  8  3  0  0  0  0
  2  9  2  0  0  0  0
  2 10  1  0  0  0  0
  3  4  2  0  0  0  0
  3  9  1  0  0  0  0
  4  5  1  0  0  0  0
  4  6  1  0  0  0  0
  5 10  2  0  0  0  0
  5 11  1  0  0  0  0
  6  7  1  0  0  0  0
  7 11  1  0  0  0  0
  2 12  1  0  0  0  0
  6 13  1  0  0  0  0
  6 14  1  0  0  0  0
  7 15  1  0  0  0  0
  7 16  1  0  0  0  0
 11 17  1  0  0  0  0
M  END
> <HYBRID receptor title>
5S18(A) > WOY(A-201)

> <HYBRID receptor filename>
data/docking/5s18.oedu

> <HYBRID Chemgauss4 score>
-7.005713

> <HYBRID receptor title>
5S18(A) > WOY(A-201)

> <HYBRID receptor filename>
data/docking/5s18.oedu

> <Dock Type>
Hybrid

$$$$
MOL0015
  -OEChem-07032400353D

 18 19  0     0  0  0  0  0  0999 V2000
   -0.0243   14.6839    1.1718 C   0  0  0  0  0  0  0  0  0  0  0  0
   -2.2553   14.9402   -0.2422 C   0  0  0  0  0  0  0  0  0  0  0  0
   -1.0412   14.6666   -0.8492 C   0  0  0  0  0  0  0  0  0  0  0  0
   -2.2760   15.0712    1.1212 C   0  0  0  0  0  0  0  0  0  0  0  0
   -3.3507   15.0114   -1.2457 C   0  0  0  0  0  0  0  0  0  0  0  0
   -2.5647   14.9166   -2.5718 C   0  0  0  0  0  0  0  0  0  0  0  0
    0.1056   14.5299   -0.1634 N   0  0  0  0  0  0  0  0  0  0  0  0
   -1.1574   14.9492    1.8650 N   0  0  0  0  0  0  0  0  0  0  0  0
   -1.1981   14.5544   -2.2359 N   0  0  0  0  0  0  0  0  0  0  0  0
   -3.5063   15.3395    1.7615 N   0  0  0  0  0  0  0  0  0  0  0  0
    0.8813   14.5813    1.7578 H   0  0  0  0  0  0  0  0  0  0  0  0
   -4.0317   14.1619   -1.1335 H   0  0  0  0  0  0  0  0  0  0  0  0
   -3.9033   15.9532   -1.1822 H   0  0  0  0  0  0  0  0  0  0  0  0
   -3.0137   14.1786   -3.2446 H   0  0  0  0  0  0  0  0  0  0  0  0
   -2.5719   15.8853   -3.0855 H   0  0  0  0  0  0  0  0  0  0  0  0
   -0.4444   14.4032   -2.8879 H   0  0  0  0  0  0  0  0  0  0  0  0
   -4.3227   15.4801    1.2037 H   0  0  0  0  0  0  0  0  0  0  0  0
   -3.5171   15.4882    2.7490 H   0  0  0  0  0  0  0  0  0  0  0  0
  1  7  1  0  0  0  0
  1  8  2  0  0  0  0
  2  3  1  0  0  0  0
  2  4  2  0  0  0  0
  2  5  1  0  0  0  0
  3  7  2  0  0  0  0
  3  9  1  0  0  0  0
  4  8  1  0  0  0  0
  4 10  1  0  0  0  0
  5  6  1  0  0  0  0
  6  9  1  0  0  0  0
  1 11  1  0  0  0  0
  5 12  1  0  0  0  0
  5 13  1  0  0  0  0
  6 14  1  0  0  0  0
  6 15  1  0  0  0  0
  9 16  1  0  0  0  0
 10 17  1  0  0  0  0
 10 18  1  0  0  0  0
M  END
> <HYBRID receptor title>
5S18(A) > WOY(A-201)

> <HYBRID receptor filename>
data/docking/5s18.oedu

> <HYBRID Chemgauss4 score>
-6.994852

> <HYBRID receptor title>
5S18(A) > WOY(A-201)

> <HYBRID receptor filename>
data/docking/5s18.oedu

> <Dock Type>
Hybrid

$$$$
MOL0080
  -OEChem-07032400353D

 23 24  0     1  0  0  0  0  0999 V2000
   -2.6488   15.1188    1.1826 C   0  0  0  0  0  0  0  0  0  0  0  0
   -0.4250   14.8531    0.8414 C   0  0  0  0  0  0  0  0  0  0  0  0
   -2.9239   14.8695   -0.1537 C   0  0  0  0  0  0  0  0  0  0  0  0
   -1.8177   14.6366   -0.9686 C   0  0  0  0  0  0  0  0  0  0  0  0
   -4.3294   14.9129   -0.6711 C   0  0  0  0  0  0  0  0  0  0  0  0
   -4.4741   14.2445   -2.0351 C   0  0  0  0  0  0  0  0  0  0  0  0
   -3.3729   14.7195   -2.9753 C   0  0  0  0  0  0  0  0  0  0  0  0
   -1.9882   14.3139   -2.4415 C   0  0  1  0  0  0  0  0  0  0  0  0
   -0.9005   14.9578   -3.3089 C   0  0  0  0  0  0  0  0  0  0  0  0
   -1.4116   15.1165    1.7138 N   0  0  0  0  0  0  0  0  0  0  0  0
   -0.5560   14.6055   -0.4754 N   0  0  0  0  0  0  0  0  0  0  0  0
   -3.4457   15.3331    1.8884 H   0  0  0  0  0  0  0  0  0  0  0  0
    0.5825   14.8373    1.2383 H   0  0  0  0  0  0  0  0  0  0  0  0
   -5.0069   14.4216    0.0373 H   0  0  0  0  0  0  0  0  0  0  0  0
   -4.6355   15.9637   -0.7471 H   0  0  0  0  0  0  0  0  0  0  0  0
   -4.4195   13.1538   -1.9265 H   0  0  0  0  0  0  0  0  0  0  0  0
   -5.4586   14.4763   -2.4568 H   0  0  0  0  0  0  0  0  0  0  0  0
   -3.5268   14.2871   -3.9712 H   0  0  0  0  0  0  0  0  0  0  0  0
   -3.4372   15.8099   -3.0874 H   0  0  0  0  0  0  0  0  0  0  0  0
   -1.8958   13.2232   -2.5340 H   0  0  0  0  0  0  0  0  0  0  0  0
   -0.9689   16.0403   -3.2358 H   0  0  0  0  0  0  0  0  0  0  0  0
   -1.0348   14.6574   -4.3450 H   0  0  0  0  0  0  0  0  0  0  0  0
    0.0798   14.6349   -2.9647 H   0  0  0  0  0  0  0  0  0  0  0  0
  1  3  1  0  0  0  0
  1 10  2  0  0  0  0
  2 10  1  0  0  0  0
  2 11  2  0  0  0  0
  3  4  2  0  0  0  0
  3  5  1  0  0  0  0
  4  8  1  0  0  0  0
  4 11  1  0  0  0  0
  5  6  1  0  0  0  0
  6  7  1  0  0  0  0
  7  8  1  0  0  0  0
  8  9  1  0  0  0  0
  1 12  1  0  0  0  0
  2 13  1  0  0  0  0
  5 14  1  0  0  0  0
  5 15  1  0  0  0  0
  6 16  1  0  0  0  0
  6 17  1  0  0  0  0
  7 18  1  0  0  0  0
  7 19  1  0  0  0  0
  8 20  1  0  0  0  0
  9 21  1  0  0  0  0
  9 22  1  0  0  0  0
  9 23  1  0  0  0  0
M  END
> <HYBRID receptor title>
5S18(A) > WOY(A-201)

> <HYBRID receptor filename>
data/docking/5s18.oedu

> <HYBRID Chemgauss4 score>
-6.988567

> <HYBRID receptor title>
5S18(A) > WOY(A-201)

> <HYBRID receptor filename>
data/docking/5s18.oedu

> <Dock Type>
Hybrid

$$$$
MOL0101
  -OEChem-07032400353D

 25 27  0     0  0  0  0  0  0999 V2000
   -2.5880   14.9091    1.4562 C   0  0  0  0  0  0  0  0  0  0  0  0
   -0.4150   14.7417    0.7657 C   0  0  0  0  0  0  0  0  0  0  0  0
   -3.0089   14.6794    0.1712 C   0  0  0  0  0  0  0  0  0  0  0  0
   -2.0332   14.4846   -0.7867 C   0  0  0  0  0  0  0  0  0  0  0  0
   -1.9430   14.0346   -3.2097 C   0  0  0  0  0  0  0  0  0  0  0  0
   -4.3864   14.6023   -0.3838 C   0  0  0  0  0  0  0  0  0  0  0  0
    0.3882   14.3665   -4.2562 C   0  0  0  0  0  0  0  0  0  0  0  0
    0.2756   15.3400   -3.1217 C   0  0  0  0  0  0  0  0  0  0  0  0
   -4.1079   14.3225   -1.8676 C   0  0  0  0  0  0  0  0  0  0  0  0
   -0.4413   14.0342   -3.0631 C   0  0  0  0  0  0  0  0  0  0  0  0
   -1.2801   14.9460    1.7869 N   0  0  0  0  0  0  0  0  0  0  0  0
   -0.7156   14.5082   -0.5292 N   0  0  0  0  0  0  0  0  0  0  0  0
   -2.6422   14.2643   -2.0375 N   0  0  0  0  0  0  0  0  0  0  0  0
   -2.4536   13.8394   -4.3136 O   0  0  0  0  0  0  0  0  0  0  0  0
   -3.2849   15.0718    2.2697 H   0  0  0  0  0  0  0  0  0  0  0  0
    0.6385   14.7689    1.0174 H   0  0  0  0  0  0  0  0  0  0  0  0
   -4.9504   13.7844    0.0742 H   0  0  0  0  0  0  0  0  0  0  0  0
   -4.9176   15.5496   -0.2525 H   0  0  0  0  0  0  0  0  0  0  0  0
   -0.0962   14.6237   -5.1903 H   0  0  0  0  0  0  0  0  0  0  0  0
    1.3220   13.8292   -4.3695 H   0  0  0  0  0  0  0  0  0  0  0  0
    1.1338   15.4585   -2.4715 H   0  0  0  0  0  0  0  0  0  0  0  0
   -0.2840   16.2512   -3.2947 H   0  0  0  0  0  0  0  0  0  0  0  0
   -4.5422   13.3689   -2.1877 H   0  0  0  0  0  0  0  0  0  0  0  0
   -4.5105   15.1131   -2.5105 H   0  0  0  0  0  0  0  0  0  0  0  0
   -0.0839   13.2842   -2.3837 H   0  0  0  0  0  0  0  0  0  0  0  0
  1  3  1  0  0  0  0
  1 11  2  0  0  0  0
  2 11  1  0  0  0  0
  2 12  2  0  0  0  0
  3  4  2  0  0  0  0
  3  6  1  0  0  0  0
  4 12  1  0  0  0  0
  4 13  1  0  0  0  0
  5 10  1  0  0  0  0
  5 13  1  0  0  0  0
  5 14  2  0  0  0  0
  6  9  1  0  0  0  0
  7  8  1  0  0  0  0
  7 10  1  0  0  0  0
  8 10  1  0  0  0  0
  9 13  1  0  0  0  0
  1 15  1  0  0  0  0
  2 16  1  0  0  0  0
  6 17  1  0  0  0  0
  6 18  1  0  0  0  0
  7 19  1  0  0  0  0
  7 20  1  0  0  0  0
  8 21  1  0  0  0  0
  8 22  1  0  0  0  0
  9 23  1  0  0  0  0
  9 24  1  0  0  0  0
 10 25  1  0  0  0  0
M  END
> <HYBRID receptor title>
5S18(A) > WOY(A-201)

> <HYBRID receptor filename>
data/docking/5s18.oedu

> <HYBRID Chemgauss4 score>
-6.924493

> <HYBRID receptor title>
5S18(A) > WOY(A-201)

> <HYBRID receptor filename>
data/docking/5s18.oedu

> <Dock Type>
Hybrid

$$$$
MOL0057
  -OEChem-07032400353D

 19 20  0     1  0  0  0  0  0999 V2000
   -1.1467   14.5967   -1.0287 C   0  0  0  0  0  0  0  0  0  0  0  0
    0.0171   14.9411    0.9074 C   0  0  0  0  0  0  0  0  0  0  0  0
   -2.3054   14.9449   -0.3834 C   0  0  0  0  0  0  0  0  0  0  0  0
   -2.2160   15.2998    0.9541 C   0  0  0  0  0  0  0  0  0  0  0  0
   -4.4725   15.2622    0.4687 C   0  0  0  0  0  0  0  0  0  0  0  0
   -3.7120   15.0721   -0.8700 C   0  0  2  0  0  0  0  0  0  0  0  0
   -4.2130   13.8741   -1.6608 C   0  0  0  0  0  0  0  0  0  0  0  0
    0.0449   14.5809   -0.3972 N   0  0  0  0  0  0  0  0  0  0  0  0
   -1.0587   15.3095    1.6359 N   0  0  0  0  0  0  0  0  0  0  0  0
   -3.4794   15.6367    1.4619 N   0  0  0  0  0  0  0  0  0  0  0  0
   -1.1282   14.3227   -2.0766 H   0  0  0  0  0  0  0  0  0  0  0  0
    0.9684   14.9336    1.4260 H   0  0  0  0  0  0  0  0  0  0  0  0
   -5.2445   16.0334    0.3762 H   0  0  0  0  0  0  0  0  0  0  0  0
   -4.9628   14.3337    0.7859 H   0  0  0  0  0  0  0  0  0  0  0  0
   -3.7953   15.9853   -1.4722 H   0  0  0  0  0  0  0  0  0  0  0  0
   -4.1298   12.9664   -1.0614 H   0  0  0  0  0  0  0  0  0  0  0  0
   -3.6226   13.7501   -2.5698 H   0  0  0  0  0  0  0  0  0  0  0  0
   -5.2591   14.0170   -1.9385 H   0  0  0  0  0  0  0  0  0  0  0  0
   -3.6615   15.8559    2.4291 H   0  0  0  0  0  0  0  0  0  0  0  0
  1  3  1  0  0  0  0
  1  8  2  0  0  0  0
  2  8  1  0  0  0  0
  2  9  2  0  0  0  0
  3  4  2  0  0  0  0
  3  6  1  0  0  0  0
  4  9  1  0  0  0  0
  4 10  1  0  0  0  0
  5  6  1  0  0  0  0
  5 10  1  0  0  0  0
  6  7  1  0  0  0  0
  1 11  1  0  0  0  0
  2 12  1  0  0  0  0
  5 13  1  0  0  0  0
  5 14  1  0  0  0  0
  6 15  1  0  0  0  0
  7 16  1  0  0  0  0
  7 17  1  0  0  0  0
  7 18  1  0  0  0  0
 10 19  1  0  0  0  0
M  END
> <HYBRID receptor title>
5S18(A) > WOY(A-201)

> <HYBRID receptor filename>
data/docking/5s18.oedu

> <HYBRID Chemgauss4 score>
-6.913907

> <HYBRID receptor title>
5S18(A) > WOY(A-201)

> <HYBRID receptor filename>
data/docking/5s18.oedu

> <Dock Type>
Hybrid

$$$$
MOL0128
  -OEChem-07032400353D

 23 24  0     1  0  0  0  0  0999 V2000
   -2.3255   15.1929    1.1002 C   0  0  0  0  0  0  0  0  0  0  0  0
   -0.1553   14.5618    0.9024 C   0  0  0  0  0  0  0  0  0  0  0  0
   -2.5355   15.0845   -0.2688 C   0  0  0  0  0  0  0  0  0  0  0  0
   -1.4093   14.7181   -1.0056 C   0  0  0  0  0  0  0  0  0  0  0  0
   -1.4665   14.5675   -2.5018 C   0  0  0  0  0  0  0  0  0  0  0  0
   -2.6371   15.3178   -3.1261 C   0  0  0  0  0  0  0  0  0  0  0  0
   -3.9241   14.9747   -2.3876 C   0  0  0  0  0  0  0  0  0  0  0  0
   -3.8565   15.4315   -0.9183 C   0  0  1  0  0  0  0  0  0  0  0  0
   -5.0716   14.8695   -0.1702 C   0  0  0  0  0  0  0  0  0  0  0  0
   -1.1544   14.9325    1.7183 N   0  0  0  0  0  0  0  0  0  0  0  0
   -0.2122   14.4377   -0.4347 N   0  0  0  0  0  0  0  0  0  0  0  0
   -3.1147   15.5135    1.7725 H   0  0  0  0  0  0  0  0  0  0  0  0
    0.7965   14.3411    1.3693 H   0  0  0  0  0  0  0  0  0  0  0  0
   -0.5302   14.9256   -2.9453 H   0  0  0  0  0  0  0  0  0  0  0  0
   -1.5497   13.4978   -2.7310 H   0  0  0  0  0  0  0  0  0  0  0  0
   -2.4609   16.4000   -3.0812 H   0  0  0  0  0  0  0  0  0  0  0  0
   -2.7265   15.0481   -4.1843 H   0  0  0  0  0  0  0  0  0  0  0  0
   -4.7745   15.4554   -2.8858 H   0  0  0  0  0  0  0  0  0  0  0  0
   -4.0944   13.8912   -2.4440 H   0  0  0  0  0  0  0  0  0  0  0  0
   -3.9310   16.5279   -0.9090 H   0  0  0  0  0  0  0  0  0  0  0  0
   -5.0236   13.7841   -0.1640 H   0  0  0  0  0  0  0  0  0  0  0  0
   -5.9833   15.1885   -0.6677 H   0  0  0  0  0  0  0  0  0  0  0  0
   -5.0704   15.2374    0.8529 H   0  0  0  0  0  0  0  0  0  0  0  0
  1  3  1  0  0  0  0
  1 10  2  0  0  0  0
  2 10  1  0  0  0  0
  2 11  2  0  0  0  0
  3  4  2  0  0  0  0
  3  8  1  0  0  0  0
  4  5  1  0  0  0  0
  4 11  1  0  0  0  0
  5  6  1  0  0  0  0
  6  7  1  0  0  0  0
  7  8  1  0  0  0  0
  8  9  1  0  0  0  0
  1 12  1  0  0  0  0
  2 13  1  0  0  0  0
  5 14  1  0  0  0  0
  5 15  1  0  0  0  0
  6 16  1  0  0  0  0
  6 17  1  0  0  0  0
  7 18  1  0  0  0  0
  7 19  1  0  0  0  0
  8 20  1  0  0  0  0
  9 21  1  0  0  0  0
  9 22  1  0  0  0  0
  9 23  1  0  0  0  0
M  END
> <HYBRID receptor title>
5S18(A) > WOY(A-201)

> <HYBRID receptor filename>
data/docking/5s18.oedu

> <HYBRID Chemgauss4 score>
-6.874938

> <HYBRID receptor title>
5S18(A) > WOY(A-201)

> <HYBRID receptor filename>
data/docking/5s18.oedu

> <Dock Type>
Hybrid

$$$$
MOL0092
  -OEChem-07032400353D

 17 18  0     1  0  0  0  0  0999 V2000
   -4.2092   14.2804   -1.5203 C   0  0  0  0  0  0  0  0  0  0  0  0
   -1.0700   14.4460   -1.0037 C   0  0  0  0  0  0  0  0  0  0  0  0
    0.1620   14.4597    0.9205 C   0  0  0  0  0  0  0  0  0  0  0  0
   -2.1484   14.9296   -0.3066 C   0  0  0  0  0  0  0  0  0  0  0  0
   -1.9811   15.1744    1.0478 C   0  0  0  0  0  0  0  0  0  0  0  0
   -4.2131   15.5844    0.6103 C   0  0  0  0  0  0  0  0  0  0  0  0
   -3.5193   15.3199   -0.7525 C   0  0  2  0  0  0  0  0  0  0  0  0
   -4.7562   13.4574   -2.1292 N   0  0  0  0  0  0  0  0  0  0  0  0
    0.1120   14.1924   -0.4055 N   0  0  0  0  0  0  0  0  0  0  0  0
   -0.8280   14.9475    1.6987 N   0  0  0  0  0  0  0  0  0  0  0  0
   -3.1595   15.6868    1.6068 N   0  0  0  0  0  0  0  0  0  0  0  0
   -1.1111   14.2482   -2.0681 H   0  0  0  0  0  0  0  0  0  0  0  0
    1.1063   14.2609    1.4133 H   0  0  0  0  0  0  0  0  0  0  0  0
   -4.8022   16.5076    0.5753 H   0  0  0  0  0  0  0  0  0  0  0  0
   -4.8928   14.7697    0.8904 H   0  0  0  0  0  0  0  0  0  0  0  0
   -3.4562   16.2534   -1.3239 H   0  0  0  0  0  0  0  0  0  0  0  0
   -3.2874   15.8798    2.5882 H   0  0  0  0  0  0  0  0  0  0  0  0
  1  7  1  0  0  0  0
  1  8  3  0  0  0  0
  2  4  1  0  0  0  0
  2  9  2  0  0  0  0
  3  9  1  0  0  0  0
  3 10  2  0  0  0  0
  4  5  2  0  0  0  0
  4  7  1  0  0  0  0
  5 10  1  0  0  0  0
  5 11  1  0  0  0  0
  6  7  1  0  0  0  0
  6 11  1  0  0  0  0
  2 12  1  0  0  0  0
  3 13  1  0  0  0  0
  6 14  1  0  0  0  0
  6 15  1  0  0  0  0
  7 16  1  0  0  0  0
 11 17  1  0  0  0  0
M  END
> <HYBRID receptor title>
5S18(A) > WOY(A-201)

> <HYBRID receptor filename>
data/docking/5s18.oedu

> <HYBRID Chemgauss4 score>
-6.859315

> <HYBRID receptor title>
5S18(A) > WOY(A-201)

> <HYBRID receptor filename>
data/docking/5s18.oedu

> <Dock Type>
Hybrid

$$$$
MOL0124
  -OEChem-07032400353D

 21 22  0     1  0  0  0  0  0999 V2000
   -1.2521   14.8145   -0.7940 C   0  0  0  0  0  0  0  0  0  0  0  0
   -0.1471   15.1192    1.1829 C   0  0  0  0  0  0  0  0  0  0  0  0
   -2.4439   15.0287   -0.1504 C   0  0  0  0  0  0  0  0  0  0  0  0
   -2.4020   15.3001    1.2089 C   0  0  0  0  0  0  0  0  0  0  0  0
   -4.6412   15.1199    0.6778 C   0  0  0  0  0  0  0  0  0  0  0  0
   -3.8489   15.0791   -0.6553 C   0  0  2  0  0  0  0  0  0  0  0  0
   -4.2428   13.9019   -1.5331 C   0  0  0  0  0  0  0  0  0  0  0  0
   -0.0722   14.8492   -0.1415 N   0  0  0  0  0  0  0  0  0  0  0  0
   -1.2590   15.3542    1.9125 N   0  0  0  0  0  0  0  0  0  0  0  0
   -3.6952   15.5038    1.7125 N   0  0  0  0  0  0  0  0  0  0  0  0
   -3.7534   14.0957   -2.8911 N   0  0  0  0  0  0  0  0  0  0  0  0
   -1.1969   14.6126   -1.8569 H   0  0  0  0  0  0  0  0  0  0  0  0
    0.7943   15.1512    1.7185 H   0  0  0  0  0  0  0  0  0  0  0  0
   -5.4705   15.8328    0.6207 H   0  0  0  0  0  0  0  0  0  0  0  0
   -5.0609   14.1368    0.9241 H   0  0  0  0  0  0  0  0  0  0  0  0
   -3.9947   16.0215   -1.1976 H   0  0  0  0  0  0  0  0  0  0  0  0
   -3.8200   12.9797   -1.1229 H   0  0  0  0  0  0  0  0  0  0  0  0
   -5.3321   13.7966   -1.5447 H   0  0  0  0  0  0  0  0  0  0  0  0
   -3.9080   15.6436    2.6881 H   0  0  0  0  0  0  0  0  0  0  0  0
   -4.0077   13.2887   -3.4562 H   0  0  0  0  0  0  0  0  0  0  0  0
   -2.7361   14.1280   -2.8786 H   0  0  0  0  0  0  0  0  0  0  0  0
  1  3  1  0  0  0  0
  1  8  2  0  0  0  0
  2  8  1  0  0  0  0
  2  9  2  0  0  0  0
  3  4  2  0  0  0  0
  3  6  1  0  0  0  0
  4  9  1  0  0  0  0
  4 10  1  0  0  0  0
  5  6  1  0  0  0  0
  5 10  1  0  0  0  0
  6  7  1  0  0  0  0
  7 11  1  0  0  0  0
  1 12  1  0  0  0  0
  2 13  1  0  0  0  0
  5 14  1  0  0  0  0
  5 15  1  0  0  0  0
  6 16  1  0  0  0  0
  7 17  1  0  0  0  0
  7 18  1  0  0  0  0
 10 19  1  0  0  0  0
 11 20  1  0  0  0  0
 11 21  1  0  0  0  0
M  END
> <HYBRID receptor title>
5S18(A) > WOY(A-201)

> <HYBRID receptor filename>
data/docking/5s18.oedu

> <HYBRID Chemgauss4 score>
-6.796797

> <HYBRID receptor title>
5S18(A) > WOY(A-201)

> <HYBRID receptor filename>
data/docking/5s18.oedu

> <Dock Type>
Hybrid

$$$$
MOL0148
  -OEChem-07032400353D

 25 27  0     0  0  0  0  0  0999 V2000
   -0.2024   13.0375   -4.3556 C   0  0  0  0  0  0  0  0  0  0  0  0
   -0.8764   13.3820   -3.1893 C   0  0  0  0  0  0  0  0  0  0  0  0
   -0.6722   13.5544   -5.5528 C   0  0  0  0  0  0  0  0  0  0  0  0
   -3.0842   15.2897    1.4130 C   0  0  0  0  0  0  0  0  0  0  0  0
   -2.3736   14.6847   -4.5001 C   0  0  0  0  0  0  0  0  0  0  0  0
   -0.8758   14.8480    1.0715 C   0  0  0  0  0  0  0  0  0  0  0  0
   -3.3202   15.0898    0.0757 C   0  0  0  0  0  0  0  0  0  0  0  0
   -1.9835   14.2206   -3.2542 C   0  0  0  0  0  0  0  0  0  0  0  0
   -2.2525   14.7486   -0.7398 C   0  0  0  0  0  0  0  0  0  0  0  0
   -4.5935   15.1414   -0.6795 C   0  0  0  0  0  0  0  0  0  0  0  0
   -4.0937   15.0144   -2.1281 C   0  0  0  0  0  0  0  0  0  0  0  0
   -1.7442   14.3719   -5.6548 N   0  0  0  0  0  0  0  0  0  0  0  0
   -1.8521   15.1762    1.9451 N   0  0  0  0  0  0  0  0  0  0  0  0
   -1.0031   14.6243   -0.2555 N   0  0  0  0  0  0  0  0  0  0  0  0
   -2.6820   14.5840   -2.0968 N   0  0  0  0  0  0  0  0  0  0  0  0
    0.6630   12.3854   -4.3295 H   0  0  0  0  0  0  0  0  0  0  0  0
   -0.5309   12.9919   -2.2356 H   0  0  0  0  0  0  0  0  0  0  0  0
   -0.1821   13.3165   -6.4910 H   0  0  0  0  0  0  0  0  0  0  0  0
   -3.8770   15.5461    2.1055 H   0  0  0  0  0  0  0  0  0  0  0  0
   -3.2301   15.3422   -4.6147 H   0  0  0  0  0  0  0  0  0  0  0  0
    0.1231   14.7528    1.4806 H   0  0  0  0  0  0  0  0  0  0  0  0
   -5.2332   14.2953   -0.4088 H   0  0  0  0  0  0  0  0  0  0  0  0
   -5.1263   16.0835   -0.5229 H   0  0  0  0  0  0  0  0  0  0  0  0
   -4.7110   14.3062   -2.6934 H   0  0  0  0  0  0  0  0  0  0  0  0
   -4.1660   15.9892   -2.6287 H   0  0  0  0  0  0  0  0  0  0  0  0
  1  2  2  0  0  0  0
  1  3  1  0  0  0  0
  2  8  1  0  0  0  0
  3 12  2  0  0  0  0
  4  7  1  0  0  0  0
  4 13  2  0  0  0  0
  5  8  2  0  0  0  0
  5 12  1  0  0  0  0
  6 13  1  0  0  0  0
  6 14  2  0  0  0  0
  7  9  2  0  0  0  0
  7 10  1  0  0  0  0
  8 15  1  0  0  0  0
  9 14  1  0  0  0  0
  9 15  1  0  0  0  0
 10 11  1  0  0  0  0
 11 15  1  0  0  0  0
  1 16  1  0  0  0  0
  2 17  1  0  0  0  0
  3 18  1  0  0  0  0
  4 19  1  0  0  0  0
  5 20  1  0  0  0  0
  6 21  1  0  0  0  0
 10 22  1  0  0  0  0
 10 23  1  0  0  0  0
 11 24  1  0  0  0  0
 11 25  1  0  0  0  0
M  END
> <HYBRID receptor title>
5S18(A) > WOY(A-201)

> <HYBRID receptor filename>
data/docking/5s18.oedu

> <HYBRID Chemgauss4 score>
-6.790429

> <HYBRID receptor title>
5S18(A) > WOY(A-201)

> <HYBRID receptor filename>
data/docking/5s18.oedu

> <Dock Type>
Hybrid

$$$$
MOL0076
  -OEChem-07032400353D

 22 23  0     1  0  0  0  0  0999 V2000
   -2.0906   15.0237    1.1372 C   0  0  0  0  0  0  0  0  0  0  0  0
    0.1527   14.5609    1.0276 C   0  0  0  0  0  0  0  0  0  0  0  0
   -2.1847   14.8611   -0.2181 C   0  0  0  0  0  0  0  0  0  0  0  0
   -1.0178   14.5535   -0.8817 C   0  0  0  0  0  0  0  0  0  0  0  0
   -3.3539   14.8931   -1.1336 C   0  0  0  0  0  0  0  0  0  0  0  0
   -2.6764   14.8368   -2.5192 C   0  0  0  0  0  0  0  0  0  0  0  0
    0.2369   13.1672   -4.1112 C   0  0  0  0  0  0  0  0  0  0  0  0
   -0.9173   14.8884    1.7950 N   0  0  0  0  0  0  0  0  0  0  0  0
    0.1767   14.3647   -0.3062 N   0  0  0  0  0  0  0  0  0  0  0  0
   -1.2832   14.3295   -2.2694 N   0  0  1  0  0  0  0  0  0  0  0  0
    1.1365   15.1243   -2.6325 O   0  0  0  0  0  0  0  0  0  0  0  0
   -0.6099   15.6228   -4.3890 O   0  0  0  0  0  0  0  0  0  0  0  0
   -0.0603   14.7523   -3.3649 S   0  0  0  0  0  0  0  0  0  0  0  0
   -2.9473   15.2795    1.7492 H   0  0  0  0  0  0  0  0  0  0  0  0
    1.0971   14.4488    1.5485 H   0  0  0  0  0  0  0  0  0  0  0  0
   -4.0306   14.0466   -0.9863 H   0  0  0  0  0  0  0  0  0  0  0  0
   -3.9045   15.8318   -1.0106 H   0  0  0  0  0  0  0  0  0  0  0  0
   -3.2141   14.1366   -3.1703 H   0  0  0  0  0  0  0  0  0  0  0  0
   -2.6511   15.8209   -2.9963 H   0  0  0  0  0  0  0  0  0  0  0  0
    1.0223   13.2807   -4.8598 H   0  0  0  0  0  0  0  0  0  0  0  0
   -0.6889   12.8271   -4.5770 H   0  0  0  0  0  0  0  0  0  0  0  0
    0.5499   12.4723   -3.3307 H   0  0  0  0  0  0  0  0  0  0  0  0
  1  3  1  0  0  0  0
  1  8  2  0  0  0  0
  2  8  1  0  0  0  0
  2  9  2  0  0  0  0
  3  4  2  0  0  0  0
  3  5  1  0  0  0  0
  4  9  1  0  0  0  0
  4 10  1  0  0  0  0
  5  6  1  0  0  0  0
  6 10  1  0  0  0  0
  7 13  1  0  0  0  0
 10 13  1  0  0  0  0
 11 13  2  0  0  0  0
 12 13  2  0  0  0  0
  1 14  1  0  0  0  0
  2 15  1  0  0  0  0
  5 16  1  0  0  0  0
  5 17  1  0  0  0  0
  6 18  1  0  0  0  0
  6 19  1  0  0  0  0
  7 20  1  0  0  0  0
  7 21  1  0  0  0  0
  7 22  1  0  0  0  0
M  END
> <HYBRID receptor title>
5S18(A) > WOY(A-201)

> <HYBRID receptor filename>
data/docking/5s18.oedu

> <HYBRID Chemgauss4 score>
-6.780838

> <HYBRID receptor title>
5S18(A) > WOY(A-201)

> <HYBRID receptor filename>
data/docking/5s18.oedu

> <Dock Type>
Hybrid

$$$$
MOL0119
  -OEChem-07032400353D

 22 23  0     0  0  0  0  0  0999 V2000
   -2.8293   15.0499    1.2431 C   0  0  0  0  0  0  0  0  0  0  0  0
   -0.5855   15.1165    0.8094 C   0  0  0  0  0  0  0  0  0  0  0  0
   -3.0805   14.9331   -0.0991 C   0  0  0  0  0  0  0  0  0  0  0  0
   -1.9879   14.9156   -0.9448 C   0  0  0  0  0  0  0  0  0  0  0  0
   -1.6019   14.7389   -3.3798 C   0  0  0  0  0  0  0  0  0  0  0  0
   -4.3736   14.8168   -0.8259 C   0  0  0  0  0  0  0  0  0  0  0  0
   -3.9040   14.7225   -2.2843 C   0  0  0  0  0  0  0  0  0  0  0  0
    0.6655   14.7847   -4.0924 C   0  0  0  0  0  0  0  0  0  0  0  0
   -1.5753   15.1452    1.7324 N   0  0  0  0  0  0  0  0  0  0  0  0
   -0.7147   15.0052   -0.5287 N   0  0  0  0  0  0  0  0  0  0  0  0
   -2.4314   14.7900   -2.2730 N   0  0  0  0  0  0  0  0  0  0  0  0
   -1.9804   14.6285   -4.5429 O   0  0  0  0  0  0  0  0  0  0  0  0
   -0.2830   14.8275   -3.0203 O   0  0  0  0  0  0  0  0  0  0  0  0
   -3.6251   15.0716    1.9779 H   0  0  0  0  0  0  0  0  0  0  0  0
    0.4260   15.1915    1.1903 H   0  0  0  0  0  0  0  0  0  0  0  0
   -4.9149   13.9148   -0.5253 H   0  0  0  0  0  0  0  0  0  0  0  0
   -4.9954   15.7027   -0.6666 H   0  0  0  0  0  0  0  0  0  0  0  0
   -4.2126   13.7816   -2.7537 H   0  0  0  0  0  0  0  0  0  0  0  0
   -4.2920   15.5474   -2.8926 H   0  0  0  0  0  0  0  0  0  0  0  0
    1.6780   14.8630   -3.6880 H   0  0  0  0  0  0  0  0  0  0  0  0
    0.5599   13.8354   -4.6230 H   0  0  0  0  0  0  0  0  0  0  0  0
    0.4731   15.6087   -4.7833 H   0  0  0  0  0  0  0  0  0  0  0  0
  1  3  1  0  0  0  0
  1  9  2  0  0  0  0
  2  9  1  0  0  0  0
  2 10  2  0  0  0  0
  3  4  2  0  0  0  0
  3  6  1  0  0  0  0
  4 10  1  0  0  0  0
  4 11  1  0  0  0  0
  5 11  1  0  0  0  0
  5 12  2  0  0  0  0
  5 13  1  0  0  0  0
  6  7  1  0  0  0  0
  7 11  1  0  0  0  0
  8 13  1  0  0  0  0
  1 14  1  0  0  0  0
  2 15  1  0  0  0  0
  6 16  1  0  0  0  0
  6 17  1  0  0  0  0
  7 18  1  0  0  0  0
  7 19  1  0  0  0  0
  8 20  1  0  0  0  0
  8 21  1  0  0  0  0
  8 22  1  0  0  0  0
M  END
> <HYBRID receptor title>
5S18(A) > WOY(A-201)

> <HYBRID receptor filename>
data/docking/5s18.oedu

> <HYBRID Chemgauss4 score>
-6.774144

> <HYBRID receptor title>
5S18(A) > WOY(A-201)

> <HYBRID receptor filename>
data/docking/5s18.oedu

> <Dock Type>
Hybrid

$$$$
MOL0056
  -OEChem-07032400353D

 26 27  0     1  0  0  0  0  0999 V2000
   -3.2321   14.9288    1.4656 C   0  0  0  0  0  0  0  0  0  0  0  0
   -1.0255   15.1631    0.9221 C   0  0  0  0  0  0  0  0  0  0  0  0
   -3.5287   14.7548    0.1388 C   0  0  0  0  0  0  0  0  0  0  0  0
   -2.4834   14.7885   -0.7706 C   0  0  0  0  0  0  0  0  0  0  0  0
   -4.8221   14.4863   -0.5391 C   0  0  0  0  0  0  0  0  0  0  0  0
   -4.4265   14.6560   -2.0189 C   0  0  0  0  0  0  0  0  0  0  0  0
   -0.7699   14.3975   -3.1577 C   0  0  0  0  0  0  0  0  0  0  0  0
   -2.2461   14.7397   -3.3088 C   0  0  0  0  0  0  0  0  0  0  0  0
    0.0088   14.5437   -4.4599 C   0  0  0  0  0  0  0  0  0  0  0  0
   -1.9702   15.1417    1.8909 N   0  0  0  0  0  0  0  0  0  0  0  0
   -1.2059   14.9949   -0.4058 N   0  0  0  0  0  0  0  0  0  0  0  0
   -2.9661   14.5767   -2.0939 N   0  0  1  0  0  0  0  0  0  0  0  0
   -0.1046   15.8868   -4.9118 O   0  0  0  0  0  0  0  0  0  0  0  0
   -3.9940   14.9055    2.2354 H   0  0  0  0  0  0  0  0  0  0  0  0
   -0.0078   15.3366    1.2498 H   0  0  0  0  0  0  0  0  0  0  0  0
   -5.1924   13.4771   -0.3385 H   0  0  0  0  0  0  0  0  0  0  0  0
   -5.5684   15.2307   -0.2437 H   0  0  0  0  0  0  0  0  0  0  0  0
   -4.8671   13.8449   -2.6129 H   0  0  0  0  0  0  0  0  0  0  0  0
   -4.7952   15.6042   -2.4244 H   0  0  0  0  0  0  0  0  0  0  0  0
   -0.6726   13.3646   -2.8005 H   0  0  0  0  0  0  0  0  0  0  0  0
   -0.3080   15.0267   -2.3859 H   0  0  0  0  0  0  0  0  0  0  0  0
   -2.3820   15.7733   -3.6433 H   0  0  0  0  0  0  0  0  0  0  0  0
   -2.7101   14.0789   -4.0469 H   0  0  0  0  0  0  0  0  0  0  0  0
   -0.3899   13.8844   -5.2370 H   0  0  0  0  0  0  0  0  0  0  0  0
    1.0684   14.3164   -4.3080 H   0  0  0  0  0  0  0  0  0  0  0  0
    0.3997   15.9469   -5.7390 H   0  0  0  0  0  0  0  0  0  0  0  0
  1  3  1  0  0  0  0
  1 10  2  0  0  0  0
  2 10  1  0  0  0  0
  2 11  2  0  0  0  0
  3  4  2  0  0  0  0
  3  5  1  0  0  0  0
  4 11  1  0  0  0  0
  4 12  1  0  0  0  0
  5  6  1  0  0  0  0
  6 12  1  0  0  0  0
  7  8  1  0  0  0  0
  7  9  1  0  0  0  0
  8 12  1  0  0  0  0
  9 13  1  0  0  0  0
  1 14  1  0  0  0  0
  2 15  1  0  0  0  0
  5 16  1  0  0  0  0
  5 17  1  0  0  0  0
  6 18  1  0  0  0  0
  6 19  1  0  0  0  0
  7 20  1  0  0  0  0
  7 21  1  0  0  0  0
  8 22  1  0  0  0  0
  8 23  1  0  0  0  0
  9 24  1  0  0  0  0
  9 25  1  0  0  0  0
 13 26  1  0  0  0  0
M  END
> <HYBRID receptor title>
5S18(A) > WOY(A-201)

> <HYBRID receptor filename>
data/docking/5s18.oedu

> <HYBRID Chemgauss4 score>
-6.773690

> <HYBRID receptor title>
5S18(A) > WOY(A-201)

> <HYBRID receptor filename>
data/docking/5s18.oedu

> <Dock Type>
Hybrid

$$$$
MOL0055
  -OEChem-07032400353D

 25 26  0     1  0  0  0  0  0999 V2000
   -2.2374   15.2054    1.4206 C   0  0  0  0  0  0  0  0  0  0  0  0
   -0.0021   14.8143    1.1597 C   0  0  0  0  0  0  0  0  0  0  0  0
   -2.4122   15.0371    0.0714 C   0  0  0  0  0  0  0  0  0  0  0  0
   -1.2944   14.7591   -0.6989 C   0  0  0  0  0  0  0  0  0  0  0  0
   -3.6324   15.1374   -0.7692 C   0  0  0  0  0  0  0  0  0  0  0  0
   -3.1166   14.5889   -2.1134 C   0  0  0  0  0  0  0  0  0  0  0  0
   -0.9549   12.6390   -3.2585 C   0  0  0  0  0  0  0  0  0  0  0  0
   -1.2081   14.8454   -4.4377 C   0  0  0  0  0  0  0  0  0  0  0  0
   -0.8373   14.1525   -3.1326 C   0  0  0  0  0  0  0  0  0  0  0  0
   -1.0250   15.0943    2.0003 N   0  0  0  0  0  0  0  0  0  0  0  0
   -0.0608   14.6377   -0.1775 N   0  0  0  0  0  0  0  0  0  0  0  0
   -1.6533   14.6298   -2.0706 N   0  0  2  0  0  0  0  0  0  0  0  0
   -3.0611   15.4367    2.0850 H   0  0  0  0  0  0  0  0  0  0  0  0
    0.9779   14.7227    1.6130 H   0  0  0  0  0  0  0  0  0  0  0  0
   -4.4539   14.5301   -0.3792 H   0  0  0  0  0  0  0  0  0  0  0  0
   -3.9439   16.1825   -0.8642 H   0  0  0  0  0  0  0  0  0  0  0  0
   -3.4491   13.5503   -2.2392 H   0  0  0  0  0  0  0  0  0  0  0  0
   -3.5067   15.1681   -2.9571 H   0  0  0  0  0  0  0  0  0  0  0  0
   -1.9782   12.3493   -3.5207 H   0  0  0  0  0  0  0  0  0  0  0  0
   -0.6945   12.1456   -2.3157 H   0  0  0  0  0  0  0  0  0  0  0  0
   -0.2931   12.2517   -4.0406 H   0  0  0  0  0  0  0  0  0  0  0  0
   -2.2373   14.6117   -4.7330 H   0  0  0  0  0  0  0  0  0  0  0  0
   -0.5406   14.5365   -5.2481 H   0  0  0  0  0  0  0  0  0  0  0  0
   -1.1352   15.9340   -4.3340 H   0  0  0  0  0  0  0  0  0  0  0  0
    0.1955   14.4090   -2.8703 H   0  0  0  0  0  0  0  0  0  0  0  0
  1  3  1  0  0  0  0
  1 10  2  0  0  0  0
  2 10  1  0  0  0  0
  2 11  2  0  0  0  0
  3  4  2  0  0  0  0
  3  5  1  0  0  0  0
  4 11  1  0  0  0  0
  4 12  1  0  0  0  0
  5  6  1  0  0  0  0
  6 12  1  0  0  0  0
  7  9  1  0  0  0  0
  8  9  1  0  0  0  0
  9 12  1  0  0  0  0
  1 13  1  0  0  0  0
  2 14  1  0  0  0  0
  5 15  1  0  0  0  0
  5 16  1  0  0  0  0
  6 17  1  0  0  0  0
  6 18  1  0  0  0  0
  7 19  1  0  0  0  0
  7 20  1  0  0  0  0
  7 21  1  0  0  0  0
  8 22  1  0  0  0  0
  8 23  1  0  0  0  0
  8 24  1  0  0  0  0
  9 25  1  0  0  0  0
M  END
> <HYBRID receptor title>
5S18(A) > WOY(A-201)

> <HYBRID receptor filename>
data/docking/5s18.oedu

> <HYBRID Chemgauss4 score>
-6.762566

> <HYBRID receptor title>
5S18(A) > WOY(A-201)

> <HYBRID receptor filename>
data/docking/5s18.oedu

> <Dock Type>
Hybrid

$$$$
MOL0011
  -OEChem-07032400353D

 23 24  0     1  0  0  0  0  0999 V2000
   -2.9302   14.9826    1.1797 C   0  0  0  0  0  0  0  0  0  0  0  0
   -0.6835   14.7035    0.8764 C   0  0  0  0  0  0  0  0  0  0  0  0
   -3.1112   14.9018   -0.1768 C   0  0  0  0  0  0  0  0  0  0  0  0
   -1.9906   14.7248   -0.9724 C   0  0  0  0  0  0  0  0  0  0  0  0
   -4.3426   15.0101   -0.9998 C   0  0  0  0  0  0  0  0  0  0  0  0
   -3.8181   14.5786   -2.3827 C   0  0  0  0  0  0  0  0  0  0  0  0
   -1.5330   14.3091   -3.4458 C   0  0  0  0  0  0  0  0  0  0  0  0
   -0.6645   15.4863   -3.8501 C   0  0  0  0  0  0  0  0  0  0  0  0
   -1.7087   14.8815    1.7417 N   0  0  0  0  0  0  0  0  0  0  0  0
   -0.7481   14.6185   -0.4694 N   0  0  0  0  0  0  0  0  0  0  0  0
   -2.3574   14.6769   -2.3473 N   0  0  2  0  0  0  0  0  0  0  0  0
   -1.4932   16.5749   -4.2375 O   0  0  0  0  0  0  0  0  0  0  0  0
   -3.7560   15.1327    1.8643 H   0  0  0  0  0  0  0  0  0  0  0  0
    0.3039   14.6211    1.3154 H   0  0  0  0  0  0  0  0  0  0  0  0
   -5.1349   14.3435   -0.6477 H   0  0  0  0  0  0  0  0  0  0  0  0
   -4.6975   16.0454   -1.0190 H   0  0  0  0  0  0  0  0  0  0  0  0
   -4.1092   13.5385   -2.5787 H   0  0  0  0  0  0  0  0  0  0  0  0
   -4.2398   15.1987   -3.1809 H   0  0  0  0  0  0  0  0  0  0  0  0
   -0.9130   13.4606   -3.1411 H   0  0  0  0  0  0  0  0  0  0  0  0
   -2.1825   13.9999   -4.2705 H   0  0  0  0  0  0  0  0  0  0  0  0
   -0.0171   15.8114   -3.0291 H   0  0  0  0  0  0  0  0  0  0  0  0
   -0.0417   15.2144   -4.7077 H   0  0  0  0  0  0  0  0  0  0  0  0
   -0.9006   17.3020   -4.4867 H   0  0  0  0  0  0  0  0  0  0  0  0
  1  3  1  0  0  0  0
  1  9  2  0  0  0  0
  2  9  1  0  0  0  0
  2 10  2  0  0  0  0
  3  4  2  0  0  0  0
  3  5  1  0  0  0  0
  4 10  1  0  0  0  0
  4 11  1  0  0  0  0
  5  6  1  0  0  0  0
  6 11  1  0  0  0  0
  7  8  1  0  0  0  0
  7 11  1  0  0  0  0
  8 12  1  0  0  0  0
  1 13  1  0  0  0  0
  2 14  1  0  0  0  0
  5 15  1  0  0  0  0
  5 16  1  0  0  0  0
  6 17  1  0  0  0  0
  6 18  1  0  0  0  0
  7 19  1  0  0  0  0
  7 20  1  0  0  0  0
  8 21  1  0  0  0  0
  8 22  1  0  0  0  0
 12 23  1  0  0  0  0
M  END
> <HYBRID receptor title>
5S18(A) > WOY(A-201)

> <HYBRID receptor filename>
data/docking/5s18.oedu

> <HYBRID Chemgauss4 score>
-6.739943

> <HYBRID receptor title>
5S18(A) > WOY(A-201)

> <HYBRID receptor filename>
data/docking/5s18.oedu

> <Dock Type>
Hybrid

$$$$
MOL0213
  -OEChem-07032400353D

 37 39  0     0  0  0  0  0  0999 V2000
   -2.3763   15.0292    1.6221 C   0  0  0  0  0  0  0  0  0  0  0  0
   -0.1629   14.9653    1.1270 C   0  0  0  0  0  0  0  0  0  0  0  0
   -2.7136   14.7338    0.3116 C   0  0  0  0  0  0  0  0  0  0  0  0
   -1.6479   14.5429   -0.5605 C   0  0  0  0  0  0  0  0  0  0  0  0
   -3.6954   13.0915   -3.3829 C   0  0  0  0  0  0  0  0  0  0  0  0
   -4.1353   14.5700   -0.1260 C   0  0  0  0  0  0  0  0  0  0  0  0
   -1.8796   14.2043   -2.0104 C   0  0  0  0  0  0  0  0  0  0  0  0
   -1.6643   10.1496   -5.7915 C   0  0  0  0  0  0  0  0  0  0  0  0
   -2.0560   11.4712   -6.4467 C   0  0  0  0  0  0  0  0  0  0  0  0
   -1.1863   10.3522   -4.3563 C   0  0  0  0  0  0  0  0  0  0  0  0
   -3.0878   12.2283   -5.6145 C   0  0  0  0  0  0  0  0  0  0  0  0
   -2.2185   11.1064   -3.5218 C   0  0  0  0  0  0  0  0  0  0  0  0
   -4.2783   14.7375   -1.6350 C   0  0  0  0  0  0  0  0  0  0  0  0
   -2.6089   12.4320   -4.1759 C   0  0  0  0  0  0  0  0  0  0  0  0
   -1.1085   15.1559    2.0637 N   0  0  0  0  0  0  0  0  0  0  0  0
   -0.3573   14.6636   -0.1713 N   0  0  0  0  0  0  0  0  0  0  0  0
   -3.2846   13.9341   -2.3484 N   0  0  0  0  0  0  0  0  0  0  0  0
   -4.8747   12.8643   -3.6670 O   0  0  0  0  0  0  0  0  0  0  0  0
   -3.1396   15.1761    2.3799 H   0  0  0  0  0  0  0  0  0  0  0  0
    0.8660   15.0637    1.4508 H   0  0  0  0  0  0  0  0  0  0  0  0
   -4.4831   13.5733    0.1716 H   0  0  0  0  0  0  0  0  0  0  0  0
   -4.7703   15.3100    0.3749 H   0  0  0  0  0  0  0  0  0  0  0  0
   -1.5643   15.0531   -2.6282 H   0  0  0  0  0  0  0  0  0  0  0  0
   -1.2558   13.3449   -2.2700 H   0  0  0  0  0  0  0  0  0  0  0  0
   -2.5212    9.4663   -5.8010 H   0  0  0  0  0  0  0  0  0  0  0  0
   -0.8694    9.6719   -6.3779 H   0  0  0  0  0  0  0  0  0  0  0  0
   -1.1644   12.0924   -6.5812 H   0  0  0  0  0  0  0  0  0  0  0  0
   -2.4613   11.2746   -7.4456 H   0  0  0  0  0  0  0  0  0  0  0  0
   -0.9713    9.3790   -3.9004 H   0  0  0  0  0  0  0  0  0  0  0  0
   -0.2434   10.9105   -4.3618 H   0  0  0  0  0  0  0  0  0  0  0  0
   -3.2483   13.2072   -6.0650 H   0  0  0  0  0  0  0  0  0  0  0  0
   -4.0346   11.6923   -5.6354 H   0  0  0  0  0  0  0  0  0  0  0  0
   -3.0951   10.4763   -3.3753 H   0  0  0  0  0  0  0  0  0  0  0  0
   -1.7920   11.3159   -2.5399 H   0  0  0  0  0  0  0  0  0  0  0  0
   -5.2954   14.4750   -1.9433 H   0  0  0  0  0  0  0  0  0  0  0  0
   -4.1108   15.7825   -1.9253 H   0  0  0  0  0  0  0  0  0  0  0  0
   -1.7692   13.1037   -4.1649 H   0  0  0  0  0  0  0  0  0  0  0  0
  1  3  1  0  0  0  0
  1 15  2  0  0  0  0
  2 15  1  0  0  0  0
  2 16  2  0  0  0  0
  3  4  2  0  0  0  0
  3  6  1  0  0  0  0
  4  7  1  0  0  0  0
  4 16  1  0  0  0  0
  5 14  1  0  0  0  0
  5 17  1  0  0  0  0
  5 18  2  0  0  0  0
  6 13  1  0  0  0  0
  7 17  1  0  0  0  0
  8  9  1  0  0  0  0
  8 10  1  0  0  0  0
  9 11  1  0  0  0  0
 10 12  1  0  0  0  0
 11 14  1  0  0  0  0
 12 14  1  0  0  0  0
 13 17  1  0  0  0  0
  1 19  1  0  0  0  0
  2 20  1  0  0  0  0
  6 21  1  0  0  0  0
  6 22  1  0  0  0  0
  7 23  1  0  0  0  0
  7 24  1  0  0  0  0
  8 25  1  0  0  0  0
  8 26  1  0  0  0  0
  9 27  1  0  0  0  0
  9 28  1  0  0  0  0
 10 29  1  0  0  0  0
 10 30  1  0  0  0  0
 11 31  1  0  0  0  0
 11 32  1  0  0  0  0
 12 33  1  0  0  0  0
 12 34  1  0  0  0  0
 13 35  1  0  0  0  0
 13 36  1  0  0  0  0
 14 37  1  0  0  0  0
M  END
> <HYBRID receptor title>
5S18(A) > WOY(A-201)

> <HYBRID receptor filename>
data/docking/5s18.oedu

> <HYBRID Chemgauss4 score>
-6.730849

> <HYBRID receptor title>
5S18(A) > WOY(A-201)

> <HYBRID receptor filename>
data/docking/5s18.oedu

> <Dock Type>
Hybrid

$$$$
MOL0069
  -OEChem-07032400353D

 22 23  0     1  0  0  0  0  0999 V2000
   -0.7549   14.5364   -1.1193 C   0  0  0  0  0  0  0  0  0  0  0  0
    0.1754   14.7807    0.9308 C   0  0  0  0  0  0  0  0  0  0  0  0
   -2.0298   14.7142   -0.6054 C   0  0  0  0  0  0  0  0  0  0  0  0
   -2.1122   14.8954    0.7773 C   0  0  0  0  0  0  0  0  0  0  0  0
   -4.5433   14.6421    0.6206 C   0  0  0  0  0  0  0  0  0  0  0  0
   -4.4299   15.0923   -0.8413 C   0  0  2  0  0  0  0  0  0  0  0  0
   -5.5718   14.5226   -1.6765 C   0  0  0  0  0  0  0  0  0  0  0  0
    0.3709   14.5676   -0.3799 N   0  0  0  0  0  0  0  0  0  0  0  0
   -1.0052   14.9482    1.5565 N   0  0  0  0  0  0  0  0  0  0  0  0
   -3.1576   14.6651   -1.4055 N   0  0  0  0  0  0  0  0  0  0  0  0
   -3.3643   15.0330    1.3699 N   0  0  0  0  0  0  0  0  0  0  0  0
   -5.4252   14.9760   -3.0103 O   0  0  0  0  0  0  0  0  0  0  0  0
   -0.5954   14.3652   -2.1798 H   0  0  0  0  0  0  0  0  0  0  0  0
    1.0610   14.8197    1.5532 H   0  0  0  0  0  0  0  0  0  0  0  0
   -5.4289   15.0897    1.0854 H   0  0  0  0  0  0  0  0  0  0  0  0
   -4.6631   13.5530    0.6825 H   0  0  0  0  0  0  0  0  0  0  0  0
   -4.4806   16.1881   -0.8838 H   0  0  0  0  0  0  0  0  0  0  0  0
   -6.5286   14.8655   -1.2828 H   0  0  0  0  0  0  0  0  0  0  0  0
   -5.5375   13.4327   -1.6613 H   0  0  0  0  0  0  0  0  0  0  0  0
   -3.0422   14.6387   -2.4119 H   0  0  0  0  0  0  0  0  0  0  0  0
   -3.4130   15.1418    2.3751 H   0  0  0  0  0  0  0  0  0  0  0  0
   -6.1623   14.6009   -3.5213 H   0  0  0  0  0  0  0  0  0  0  0  0
  1  3  1  0  0  0  0
  1  8  2  0  0  0  0
  2  8  1  0  0  0  0
  2  9  2  0  0  0  0
  3  4  2  0  0  0  0
  3 10  1  0  0  0  0
  4  9  1  0  0  0  0
  4 11  1  0  0  0  0
  5  6  1  0  0  0  0
  5 11  1  0  0  0  0
  6  7  1  0  0  0  0
  6 10  1  0  0  0  0
  7 12  1  0  0  0  0
  1 13  1  0  0  0  0
  2 14  1  0  0  0  0
  5 15  1  0  0  0  0
  5 16  1  0  0  0  0
  6 17  1  0  0  0  0
  7 18  1  0  0  0  0
  7 19  1  0  0  0  0
 10 20  1  0  0  0  0
 11 21  1  0  0  0  0
 12 22  1  0  0  0  0
M  END
> <HYBRID receptor title>
5S18(A) > WOY(A-201)

> <HYBRID receptor filename>
data/docking/5s18.oedu

> <HYBRID Chemgauss4 score>
-6.707349

> <HYBRID receptor title>
5S18(A) > WOY(A-201)

> <HYBRID receptor filename>
data/docking/5s18.oedu

> <Dock Type>
Hybrid

$$$$
MOL0107
  -OEChem-07032400353D

 25 26  0     1  0  0  0  0  0999 V2000
   -2.4664   15.1289    1.2313 C   0  0  0  0  0  0  0  0  0  0  0  0
   -0.2906   14.5735    0.9108 C   0  0  0  0  0  0  0  0  0  0  0  0
   -2.7437   14.9515   -0.1141 C   0  0  0  0  0  0  0  0  0  0  0  0
   -1.6660   14.5922   -0.9191 C   0  0  0  0  0  0  0  0  0  0  0  0
   -4.1087   15.1901   -0.6828 C   0  0  0  0  0  0  0  0  0  0  0  0
   -4.2659   14.5718   -2.0719 C   0  0  0  0  0  0  0  0  0  0  0  0
   -1.8804   14.3351   -2.4002 C   0  0  2  0  0  0  0  0  0  0  0  0
   -0.9322   14.5739   -4.7165 C   0  0  0  0  0  0  0  0  0  0  0  0
   -0.7261   14.8786   -3.2468 C   0  0  0  0  0  0  0  0  0  0  0  0
   -1.2482   14.9461    1.7776 N   0  0  0  0  0  0  0  0  0  0  0  0
   -0.4283   14.3774   -0.4144 N   0  0  0  0  0  0  0  0  0  0  0  0
   -3.1264   14.9328   -2.9140 N   0  0  0  0  0  0  0  0  0  0  0  0
   -3.2400   15.4310    1.9303 H   0  0  0  0  0  0  0  0  0  0  0  0
    0.6986   14.4123    1.3216 H   0  0  0  0  0  0  0  0  0  0  0  0
   -4.8717   14.7696   -0.0174 H   0  0  0  0  0  0  0  0  0  0  0  0
   -4.2742   16.2734   -0.7402 H   0  0  0  0  0  0  0  0  0  0  0  0
   -4.3581   13.4802   -2.0047 H   0  0  0  0  0  0  0  0  0  0  0  0
   -5.1899   14.9431   -2.5285 H   0  0  0  0  0  0  0  0  0  0  0  0
   -1.9294   13.2469   -2.5386 H   0  0  0  0  0  0  0  0  0  0  0  0
   -1.8640   15.0153   -5.0853 H   0  0  0  0  0  0  0  0  0  0  0  0
   -0.9852   13.4914   -4.8678 H   0  0  0  0  0  0  0  0  0  0  0  0
   -0.1058   14.9620   -5.3202 H   0  0  0  0  0  0  0  0  0  0  0  0
    0.2066   14.4302   -2.9004 H   0  0  0  0  0  0  0  0  0  0  0  0
   -0.6556   15.9577   -3.0957 H   0  0  0  0  0  0  0  0  0  0  0  0
   -3.2889   14.6047   -3.8658 H   0  0  0  0  0  0  0  0  0  0  0  0
  1  3  1  0  0  0  0
  1 10  2  0  0  0  0
  2 10  1  0  0  0  0
  2 11  2  0  0  0  0
  3  4  2  0  0  0  0
  3  5  1  0  0  0  0
  4  7  1  0  0  0  0
  4 11  1  0  0  0  0
  5  6  1  0  0  0  0
  6 12  1  0  0  0  0
  7  9  1  0  0  0  0
  7 12  1  0  0  0  0
  8  9  1  0  0  0  0
  1 13  1  0  0  0  0
  2 14  1  0  0  0  0
  5 15  1  0  0  0  0
  5 16  1  0  0  0  0
  6 17  1  0  0  0  0
  6 18  1  0  0  0  0
  7 19  1  0  0  0  0
  8 20  1  0  0  0  0
  8 21  1  0  0  0  0
  8 22  1  0  0  0  0
  9 23  1  0  0  0  0
  9 24  1  0  0  0  0
 12 25  1  0  0  0  0
M  END
> <HYBRID receptor title>
5S18(A) > WOY(A-201)

> <HYBRID receptor filename>
data/docking/5s18.oedu

> <HYBRID Chemgauss4 score>
-6.705138

> <HYBRID receptor title>
5S18(A) > WOY(A-201)

> <HYBRID receptor filename>
data/docking/5s18.oedu

> <Dock Type>
Hybrid

$$$$
MOL0004
  -OEChem-07032400353D

 19 20  0     1  0  0  0  0  0999 V2000
   -1.4133   14.8805   -0.8964 C   0  0  0  0  0  0  0  0  0  0  0  0
   -0.1836   14.4961    0.9911 C   0  0  0  0  0  0  0  0  0  0  0  0
   -2.5249   15.0842   -0.1197 C   0  0  0  0  0  0  0  0  0  0  0  0
   -2.3777   14.9803    1.2552 C   0  0  0  0  0  0  0  0  0  0  0  0
   -4.6393   15.2638    0.8900 C   0  0  0  0  0  0  0  0  0  0  0  0
   -3.9259   15.4632   -0.4731 C   0  0  2  0  0  0  0  0  0  0  0  0
   -4.5418   14.6257   -1.5826 C   0  0  0  0  0  0  0  0  0  0  0  0
   -0.2138   14.5758   -0.3599 N   0  0  0  0  0  0  0  0  0  0  0  0
   -1.2093   14.6858    1.8490 N   0  0  0  0  0  0  0  0  0  0  0  0
   -3.5976   15.2250    1.9030 N   0  0  0  0  0  0  0  0  0  0  0  0
   -1.4400   14.9592   -1.9764 H   0  0  0  0  0  0  0  0  0  0  0  0
    0.7746   14.2531    1.4346 H   0  0  0  0  0  0  0  0  0  0  0  0
   -5.3468   16.0764    1.0861 H   0  0  0  0  0  0  0  0  0  0  0  0
   -5.1977   14.3201    0.9151 H   0  0  0  0  0  0  0  0  0  0  0  0
   -3.9454   16.5258   -0.7452 H   0  0  0  0  0  0  0  0  0  0  0  0
   -4.5221   13.5693   -1.3113 H   0  0  0  0  0  0  0  0  0  0  0  0
   -3.9831   14.7609   -2.5099 H   0  0  0  0  0  0  0  0  0  0  0  0
   -5.5779   14.9261   -1.7501 H   0  0  0  0  0  0  0  0  0  0  0  0
   -3.7401   15.1322    2.8968 H   0  0  0  0  0  0  0  0  0  0  0  0
  1  3  1  0  0  0  0
  1  8  2  0  0  0  0
  2  8  1  0  0  0  0
  2  9  2  0  0  0  0
  3  4  2  0  0  0  0
  3  6  1  0  0  0  0
  4  9  1  0  0  0  0
  4 10  1  0  0  0  0
  5  6  1  0  0  0  0
  5 10  1  0  0  0  0
  6  7  1  0  0  0  0
  1 11  1  0  0  0  0
  2 12  1  0  0  0  0
  5 13  1  0  0  0  0
  5 14  1  0  0  0  0
  6 15  1  0  0  0  0
  7 16  1  0  0  0  0
  7 17  1  0  0  0  0
  7 18  1  0  0  0  0
 10 19  1  0  0  0  0
M  END
> <HYBRID receptor title>
5S18(A) > WOY(A-201)

> <HYBRID receptor filename>
data/docking/5s18.oedu

> <HYBRID Chemgauss4 score>
-6.683917

> <HYBRID receptor title>
5S18(A) > WOY(A-201)

> <HYBRID receptor filename>
data/docking/5s18.oedu

> <Dock Type>
Hybrid

$$$$
MOL0082
  -OEChem-07032400353D

 27 28  0     1  0  0  0  0  0999 V2000
   -0.9299   14.5221   -0.7311 C   0  0  0  0  0  0  0  0  0  0  0  0
    0.0720   14.7840    1.2837 C   0  0  0  0  0  0  0  0  0  0  0  0
   -2.1836   14.7325   -0.1783 C   0  0  0  0  0  0  0  0  0  0  0  0
   -2.2100   15.0125    1.1901 C   0  0  0  0  0  0  0  0  0  0  0  0
   -4.5759   15.6080    0.9770 C   0  0  0  0  0  0  0  0  0  0  0  0
   -4.6231   14.7092   -0.2650 C   0  0  1  0  0  0  0  0  0  0  0  0
   -8.1670   15.6075   -1.5352 C   0  0  0  0  0  0  0  0  0  0  0  0
   -5.7080   15.1724   -1.2303 C   0  0  0  0  0  0  0  0  0  0  0  0
   -7.0811   15.1714   -0.5644 C   0  0  0  0  0  0  0  0  0  0  0  0
    0.2201   14.5368   -0.0279 N   0  0  0  0  0  0  0  0  0  0  0  0
   -1.0803   15.0227    1.9378 N   0  0  0  0  0  0  0  0  0  0  0  0
   -3.3352   14.7158   -0.9442 N   0  0  0  0  0  0  0  0  0  0  0  0
   -3.4310   15.2803    1.8038 N   0  0  0  0  0  0  0  0  0  0  0  0
   -0.8095   14.3209   -1.7915 H   0  0  0  0  0  0  0  0  0  0  0  0
    0.9763   14.7952    1.8798 H   0  0  0  0  0  0  0  0  0  0  0  0
   -4.5189   16.6652    0.6880 H   0  0  0  0  0  0  0  0  0  0  0  0
   -5.4914   15.4853    1.5664 H   0  0  0  0  0  0  0  0  0  0  0  0
   -4.8489   13.6806    0.0456 H   0  0  0  0  0  0  0  0  0  0  0  0
   -8.1855   14.9446   -2.4060 H   0  0  0  0  0  0  0  0  0  0  0  0
   -7.9898   16.6279   -1.8886 H   0  0  0  0  0  0  0  0  0  0  0  0
   -9.1537   15.5738   -1.0615 H   0  0  0  0  0  0  0  0  0  0  0  0
   -5.7138   14.5108   -2.1026 H   0  0  0  0  0  0  0  0  0  0  0  0
   -5.4626   16.1787   -1.5842 H   0  0  0  0  0  0  0  0  0  0  0  0
   -7.0786   15.8465    0.2994 H   0  0  0  0  0  0  0  0  0  0  0  0
   -7.3149   14.1678   -0.1905 H   0  0  0  0  0  0  0  0  0  0  0  0
   -3.2778   14.4063   -1.9075 H   0  0  0  0  0  0  0  0  0  0  0  0
   -3.4354   15.5035    2.7912 H   0  0  0  0  0  0  0  0  0  0  0  0
  1  3  1  0  0  0  0
  1 10  2  0  0  0  0
  2 10  1  0  0  0  0
  2 11  2  0  0  0  0
  3  4  2  0  0  0  0
  3 12  1  0  0  0  0
  4 11  1  0  0  0  0
  4 13  1  0  0  0  0
  5  6  1  0  0  0  0
  5 13  1  0  0  0  0
  6  8  1  0  0  0  0
  6 12  1  0  0  0  0
  7  9  1  0  0  0  0
  8  9  1  0  0  0  0
  1 14  1  0  0  0  0
  2 15  1  0  0  0  0
  5 16  1  0  0  0  0
  5 17  1  0  0  0  0
  6 18  1  0  0  0  0
  7 19  1  0  0  0  0
  7 20  1  0  0  0  0
  7 21  1  0  0  0  0
  8 22  1  0  0  0  0
  8 23  1  0  0  0  0
  9 24  1  0  0  0  0
  9 25  1  0  0  0  0
 12 26  1  0  0  0  0
 13 27  1  0  0  0  0
M  END
> <HYBRID receptor title>
5S18(A) > WOY(A-201)

> <HYBRID receptor filename>
data/docking/5s18.oedu

> <HYBRID Chemgauss4 score>
-6.683601

> <HYBRID receptor title>
5S18(A) > WOY(A-201)

> <HYBRID receptor filename>
data/docking/5s18.oedu

> <Dock Type>
Hybrid

$$$$
MOL0035
  -OEChem-07032400353D

 21 22  0     1  0  0  0  0  0999 V2000
   -0.9769   14.7769   -1.0855 C   0  0  0  0  0  0  0  0  0  0  0  0
   -0.0316   15.1070    0.9456 C   0  0  0  0  0  0  0  0  0  0  0  0
   -2.2518   14.8264   -0.5441 C   0  0  0  0  0  0  0  0  0  0  0  0
   -2.3221   14.9952    0.8409 C   0  0  0  0  0  0  0  0  0  0  0  0
   -4.7191   14.5029    0.7341 C   0  0  0  0  0  0  0  0  0  0  0  0
   -4.6820   14.9657   -0.7277 C   0  0  2  0  0  0  0  0  0  0  0  0
   -5.7796   14.2878   -1.5413 C   0  0  0  0  0  0  0  0  0  0  0  0
    0.1559   14.9176   -0.3699 N   0  0  0  0  0  0  0  0  0  0  0  0
   -1.2093   15.1553    1.5968 N   0  0  0  0  0  0  0  0  0  0  0  0
   -3.3861   14.6679   -1.3205 N   0  0  0  0  0  0  0  0  0  0  0  0
   -3.5687   15.0068    1.4602 N   0  0  0  0  0  0  0  0  0  0  0  0
   -0.8239   14.6250   -2.1500 H   0  0  0  0  0  0  0  0  0  0  0  0
    0.8589   15.2319    1.5494 H   0  0  0  0  0  0  0  0  0  0  0  0
   -5.6344   14.8594    1.2196 H   0  0  0  0  0  0  0  0  0  0  0  0
   -4.7292   13.4071    0.7936 H   0  0  0  0  0  0  0  0  0  0  0  0
   -4.8418   16.0512   -0.7641 H   0  0  0  0  0  0  0  0  0  0  0  0
   -5.6433   13.2073   -1.5209 H   0  0  0  0  0  0  0  0  0  0  0  0
   -5.7417   14.6311   -2.5744 H   0  0  0  0  0  0  0  0  0  0  0  0
   -6.7563   14.5304   -1.1224 H   0  0  0  0  0  0  0  0  0  0  0  0
   -3.2902   14.6555   -2.3292 H   0  0  0  0  0  0  0  0  0  0  0  0
   -3.6064   15.1077    2.4668 H   0  0  0  0  0  0  0  0  0  0  0  0
  1  3  1  0  0  0  0
  1  8  2  0  0  0  0
  2  8  1  0  0  0  0
  2  9  2  0  0  0  0
  3  4  2  0  0  0  0
  3 10  1  0  0  0  0
  4  9  1  0  0  0  0
  4 11  1  0  0  0  0
  5  6  1  0  0  0  0
  5 11  1  0  0  0  0
  6  7  1  0  0  0  0
  6 10  1  0  0  0  0
  1 12  1  0  0  0  0
  2 13  1  0  0  0  0
  5 14  1  0  0  0  0
  5 15  1  0  0  0  0
  6 16  1  0  0  0  0
  7 17  1  0  0  0  0
  7 18  1  0  0  0  0
  7 19  1  0  0  0  0
 10 20  1  0  0  0  0
 11 21  1  0  0  0  0
M  END
> <HYBRID receptor title>
5S18(A) > WOY(A-201)

> <HYBRID receptor filename>
data/docking/5s18.oedu

> <HYBRID Chemgauss4 score>
-6.658612

> <HYBRID receptor title>
5S18(A) > WOY(A-201)

> <HYBRID receptor filename>
data/docking/5s18.oedu

> <Dock Type>
Hybrid

$$$$
MOL0160
  -OEChem-07032400353D

 16 17  0     0  0  0  0  0  0999 V2000
   -1.7244   14.8300   -0.9090 C   0  0  0  0  0  0  0  0  0  0  0  0
   -2.9072   15.0072   -0.2409 C   0  0  0  0  0  0  0  0  0  0  0  0
   -2.8684   15.0660    1.1420 C   0  0  0  0  0  0  0  0  0  0  0  0
   -0.6251   14.7760    1.0938 C   0  0  0  0  0  0  0  0  0  0  0  0
   -4.2949   15.1862   -0.7449 C   0  0  0  0  0  0  0  0  0  0  0  0
   -5.1066   15.1796    0.5690 C   0  0  0  0  0  0  0  0  0  0  0  0
   -0.5502   14.7064   -0.2568 N   0  0  0  0  0  0  0  0  0  0  0  0
   -1.7312   14.9536    1.8478 N   0  0  0  0  0  0  0  0  0  0  0  0
   -4.1535   15.2597    1.6629 N   0  0  0  0  0  0  0  0  0  0  0  0
    0.5365   14.6547    1.7592 F   0  0  0  0  0  0  0  0  0  0  0  0
   -1.6734   14.7822   -1.9899 H   0  0  0  0  0  0  0  0  0  0  0  0
   -4.3942   16.1454   -1.2627 H   0  0  0  0  0  0  0  0  0  0  0  0
   -4.5975   14.3663   -1.4026 H   0  0  0  0  0  0  0  0  0  0  0  0
   -5.8140   16.0149    0.6006 H   0  0  0  0  0  0  0  0  0  0  0  0
   -5.6816   14.2499    0.6529 H   0  0  0  0  0  0  0  0  0  0  0  0
   -4.3765   15.2898    2.6454 H   0  0  0  0  0  0  0  0  0  0  0  0
  1  2  1  0  0  0  0
  1  7  2  0  0  0  0
  2  3  2  0  0  0  0
  2  5  1  0  0  0  0
  3  8  1  0  0  0  0
  3  9  1  0  0  0  0
  4  7  1  0  0  0  0
  4  8  2  0  0  0  0
  4 10  1  0  0  0  0
  5  6  1  0  0  0  0
  6  9  1  0  0  0  0
  1 11  1  0  0  0  0
  5 12  1  0  0  0  0
  5 13  1  0  0  0  0
  6 14  1  0  0  0  0
  6 15  1  0  0  0  0
  9 16  1  0  0  0  0
M  END
> <HYBRID receptor title>
5S18(A) > WOY(A-201)

> <HYBRID receptor filename>
data/docking/5s18.oedu

> <HYBRID Chemgauss4 score>
-6.657036

> <HYBRID receptor title>
5S18(A) > WOY(A-201)

> <HYBRID receptor filename>
data/docking/5s18.oedu

> <Dock Type>
Hybrid

$$$$
MOL0062
  -OEChem-07032400353D

 23 24  0     1  0  0  0  0  0999 V2000
   -2.9561   15.0965    1.4624 C   0  0  0  0  0  0  0  0  0  0  0  0
   -0.8350   14.9564    0.6265 C   0  0  0  0  0  0  0  0  0  0  0  0
   -3.4537   14.8840    0.2028 C   0  0  0  0  0  0  0  0  0  0  0  0
   -2.5491   14.7201   -0.8341 C   0  0  0  0  0  0  0  0  0  0  0  0
   -0.3271   14.7769   -3.8842 C   0  0  0  0  0  0  0  0  0  0  0  0
   -1.6107   15.1024   -3.6965 C   0  0  0  0  0  0  0  0  0  0  0  0
   -4.8530   14.8295   -0.2916 C   0  0  0  0  0  0  0  0  0  0  0  0
   -4.6435   14.3179   -1.7297 C   0  0  0  0  0  0  0  0  0  0  0  0
   -2.6711   14.1236   -3.3097 C   0  0  0  0  0  0  0  0  0  0  0  0
   -1.6306   15.1344    1.7067 N   0  0  0  0  0  0  0  0  0  0  0  0
   -1.2172   14.7492   -0.6516 N   0  0  0  0  0  0  0  0  0  0  0  0
   -3.2336   14.5252   -2.0672 N   0  0  2  0  0  0  0  0  0  0  0  0
   -3.6007   15.2453    2.3201 H   0  0  0  0  0  0  0  0  0  0  0  0
    0.2327   14.9851    0.8092 H   0  0  0  0  0  0  0  0  0  0  0  0
    0.3983   15.5364   -4.1575 H   0  0  0  0  0  0  0  0  0  0  0  0
    0.0225   13.7568   -3.7706 H   0  0  0  0  0  0  0  0  0  0  0  0
   -1.9056   16.1415   -3.8161 H   0  0  0  0  0  0  0  0  0  0  0  0
   -5.4706   14.1405    0.2911 H   0  0  0  0  0  0  0  0  0  0  0  0
   -5.2960   15.8306   -0.2907 H   0  0  0  0  0  0  0  0  0  0  0  0
   -4.8762   13.2461   -1.7766 H   0  0  0  0  0  0  0  0  0  0  0  0
   -5.3022   14.8331   -2.4368 H   0  0  0  0  0  0  0  0  0  0  0  0
   -3.4714   14.0692   -4.0548 H   0  0  0  0  0  0  0  0  0  0  0  0
   -2.2387   13.1249   -3.1984 H   0  0  0  0  0  0  0  0  0  0  0  0
  1  3  1  0  0  0  0
  1 10  2  0  0  0  0
  2 10  1  0  0  0  0
  2 11  2  0  0  0  0
  3  4  2  0  0  0  0
  3  7  1  0  0  0  0
  4 11  1  0  0  0  0
  4 12  1  0  0  0  0
  5  6  2  0  0  0  0
  6  9  1  0  0  0  0
  7  8  1  0  0  0  0
  8 12  1  0  0  0  0
  9 12  1  0  0  0  0
  1 13  1  0  0  0  0
  2 14  1  0  0  0  0
  5 15  1  0  0  0  0
  5 16  1  0  0  0  0
  6 17  1  0  0  0  0
  7 18  1  0  0  0  0
  7 19  1  0  0  0  0
  8 20  1  0  0  0  0
  8 21  1  0  0  0  0
  9 22  1  0  0  0  0
  9 23  1  0  0  0  0
M  END
> <HYBRID receptor title>
5S18(A) > WOY(A-201)

> <HYBRID receptor filename>
data/docking/5s18.oedu

> <HYBRID Chemgauss4 score>
-6.655640

> <HYBRID receptor title>
5S18(A) > WOY(A-201)

> <HYBRID receptor filename>
data/docking/5s18.oedu

> <Dock Type>
Hybrid

$$$$
MOL0066
  -OEChem-07032400353D

 26 28  0     0  0  0  0  0  0999 V2000
    1.2168   12.7179   -5.2112 C   0  0  0  0  0  0  0  0  0  0  0  0
    1.5773   13.6565   -4.2444 C   0  0  0  0  0  0  0  0  0  0  0  0
   -0.0650   12.1681   -5.2048 C   0  0  0  0  0  0  0  0  0  0  0  0
    0.6562   14.0454   -3.2715 C   0  0  0  0  0  0  0  0  0  0  0  0
   -0.9861   12.5570   -4.2320 C   0  0  0  0  0  0  0  0  0  0  0  0
   -2.6177   15.0102    0.9628 C   0  0  0  0  0  0  0  0  0  0  0  0
   -0.3407   14.9535    0.9922 C   0  0  0  0  0  0  0  0  0  0  0  0
   -2.6012   14.5741   -0.3386 C   0  0  0  0  0  0  0  0  0  0  0  0
   -0.6256   13.4955   -3.2652 C   0  0  0  0  0  0  0  0  0  0  0  0
   -1.3755   14.3270   -0.9371 C   0  0  0  0  0  0  0  0  0  0  0  0
   -3.7286   14.2694   -1.2499 C   0  0  0  0  0  0  0  0  0  0  0  0
   -2.9908   14.0283   -2.5772 C   0  0  0  0  0  0  0  0  0  0  0  0
   -1.4844   15.2140    1.6616 N   0  0  0  0  0  0  0  0  0  0  0  0
   -0.2161   14.5166   -0.2809 N   0  0  0  0  0  0  0  0  0  0  0  0
   -1.5501   13.8852   -2.2889 N   0  0  0  0  0  0  0  0  0  0  0  0
    1.9343   12.4146   -5.9679 H   0  0  0  0  0  0  0  0  0  0  0  0
    2.5754   14.0850   -4.2495 H   0  0  0  0  0  0  0  0  0  0  0  0
   -0.3457   11.4372   -5.9577 H   0  0  0  0  0  0  0  0  0  0  0  0
    0.9486   14.7768   -2.5225 H   0  0  0  0  0  0  0  0  0  0  0  0
   -1.9826   12.1225   -4.2363 H   0  0  0  0  0  0  0  0  0  0  0  0
   -3.5421   15.2095    1.4915 H   0  0  0  0  0  0  0  0  0  0  0  0
    0.5821   15.1123    1.5376 H   0  0  0  0  0  0  0  0  0  0  0  0
   -4.2523   13.3659   -0.9215 H   0  0  0  0  0  0  0  0  0  0  0  0
   -4.4297   15.1049   -1.3297 H   0  0  0  0  0  0  0  0  0  0  0  0
   -3.3829   13.1397   -3.0860 H   0  0  0  0  0  0  0  0  0  0  0  0
   -3.1449   14.8868   -3.2446 H   0  0  0  0  0  0  0  0  0  0  0  0
  1  2  1  0  0  0  0
  1  3  2  0  0  0  0
  2  4  2  0  0  0  0
  3  5  1  0  0  0  0
  4  9  1  0  0  0  0
  5  9  2  0  0  0  0
  6  8  1  0  0  0  0
  6 13  2  0  0  0  0
  7 13  1  0  0  0  0
  7 14  2  0  0  0  0
  8 10  2  0  0  0  0
  8 11  1  0  0  0  0
  9 15  1  0  0  0  0
 10 14  1  0  0  0  0
 10 15  1  0  0  0  0
 11 12  1  0  0  0  0
 12 15  1  0  0  0  0
  1 16  1  0  0  0  0
  2 17  1  0  0  0  0
  3 18  1  0  0  0  0
  4 19  1  0  0  0  0
  5 20  1  0  0  0  0
  6 21  1  0  0  0  0
  7 22  1  0  0  0  0
 11 23  1  0  0  0  0
 11 24  1  0  0  0  0
 12 25  1  0  0  0  0
 12 26  1  0  0  0  0
M  END
> <HYBRID receptor title>
5S18(A) > WOY(A-201)

> <HYBRID receptor filename>
data/docking/5s18.oedu

> <HYBRID Chemgauss4 score>
-6.654080

> <HYBRID receptor title>
5S18(A) > WOY(A-201)

> <HYBRID receptor filename>
data/docking/5s18.oedu

> <Dock Type>
Hybrid

$$$$
MOL0048
  -OEChem-07032400353D

 17 18  0     0  0  0  0  0  0999 V2000
   -0.3768   14.8148    0.9986 C   0  0  0  0  0  0  0  0  0  0  0  0
   -2.6074   15.0700   -0.4164 C   0  0  0  0  0  0  0  0  0  0  0  0
   -1.3930   14.7964   -1.0228 C   0  0  0  0  0  0  0  0  0  0  0  0
   -2.6286   15.2016    0.9470 C   0  0  0  0  0  0  0  0  0  0  0  0
   -3.7024   15.1405   -1.4203 C   0  0  0  0  0  0  0  0  0  0  0  0
   -2.9158   15.0453   -2.7461 C   0  0  0  0  0  0  0  0  0  0  0  0
   -0.2464   14.6602   -0.3366 N   0  0  0  0  0  0  0  0  0  0  0  0
   -1.5102   15.0802    1.6912 N   0  0  0  0  0  0  0  0  0  0  0  0
   -1.5493   14.6835   -2.4096 N   0  0  0  0  0  0  0  0  0  0  0  0
   -3.7984   15.4615    1.6029 O   0  0  0  0  0  0  0  0  0  0  0  0
    0.5289   14.7137    1.5847 H   0  0  0  0  0  0  0  0  0  0  0  0
   -4.3836   14.2915   -1.3062 H   0  0  0  0  0  0  0  0  0  0  0  0
   -4.2546   16.0825   -1.3548 H   0  0  0  0  0  0  0  0  0  0  0  0
   -3.3648   14.3069   -3.4186 H   0  0  0  0  0  0  0  0  0  0  0  0
   -2.9225   16.0138   -3.2597 H   0  0  0  0  0  0  0  0  0  0  0  0
   -0.7961   14.5320   -3.0620 H   0  0  0  0  0  0  0  0  0  0  0  0
   -3.6126   15.5195    2.5562 H   0  0  0  0  0  0  0  0  0  0  0  0
  1  7  1  0  0  0  0
  1  8  2  0  0  0  0
  2  3  1  0  0  0  0
  2  4  2  0  0  0  0
  2  5  1  0  0  0  0
  3  7  2  0  0  0  0
  3  9  1  0  0  0  0
  4  8  1  0  0  0  0
  4 10  1  0  0  0  0
  5  6  1  0  0  0  0
  6  9  1  0  0  0  0
  1 11  1  0  0  0  0
  5 12  1  0  0  0  0
  5 13  1  0  0  0  0
  6 14  1  0  0  0  0
  6 15  1  0  0  0  0
  9 16  1  0  0  0  0
 10 17  1  0  0  0  0
M  END
> <HYBRID receptor title>
5S18(A) > WOY(A-201)

> <HYBRID receptor filename>
data/docking/5s18.oedu

> <HYBRID Chemgauss4 score>
-6.640152

> <HYBRID receptor title>
5S18(A) > WOY(A-201)

> <HYBRID receptor filename>
data/docking/5s18.oedu

> <Dock Type>
Hybrid

$$$$
MOL0075
  -OEChem-07032400353D

 21 22  0     1  0  0  0  0  0999 V2000
   -1.4815   14.4725   -0.9824 C   0  0  0  0  0  0  0  0  0  0  0  0
   -0.2144   14.9134    0.8424 C   0  0  0  0  0  0  0  0  0  0  0  0
   -2.6674   14.6841   -0.2860 C   0  0  0  0  0  0  0  0  0  0  0  0
   -2.4974   15.0524    1.0574 C   0  0  0  0  0  0  0  0  0  0  0  0
   -4.8974   15.5051    1.2102 C   0  0  0  0  0  0  0  0  0  0  0  0
   -5.0732   14.5158    0.0656 C   0  0  0  0  0  0  0  0  0  0  0  0
   -4.1159   14.1018   -2.2114 C   0  0  0  0  0  0  0  0  0  0  0  0
   -0.2443   14.5770   -0.4534 N   0  0  0  0  0  0  0  0  0  0  0  0
   -1.2733   15.1566    1.6329 N   0  0  0  0  0  0  0  0  0  0  0  0
   -3.6129   15.3162    1.8448 N   0  0  0  0  0  0  0  0  0  0  0  0
   -3.9315   14.5653   -0.8459 N   0  0  2  0  0  0  0  0  0  0  0  0
   -1.4763   14.1925   -2.0314 H   0  0  0  0  0  0  0  0  0  0  0  0
    0.7627   15.0004    1.3008 H   0  0  0  0  0  0  0  0  0  0  0  0
   -4.9732   16.5333    0.8360 H   0  0  0  0  0  0  0  0  0  0  0  0
   -5.6940   15.3694    1.9493 H   0  0  0  0  0  0  0  0  0  0  0  0
   -5.1811   13.4968    0.4586 H   0  0  0  0  0  0  0  0  0  0  0  0
   -6.0001   14.7550   -0.4687 H   0  0  0  0  0  0  0  0  0  0  0  0
   -5.1788   14.0761   -2.4686 H   0  0  0  0  0  0  0  0  0  0  0  0
   -3.6020   14.7687   -2.9094 H   0  0  0  0  0  0  0  0  0  0  0  0
   -3.7021   13.0964   -2.3280 H   0  0  0  0  0  0  0  0  0  0  0  0
   -3.4709   15.5998    2.8062 H   0  0  0  0  0  0  0  0  0  0  0  0
  1  3  1  0  0  0  0
  1  8  2  0  0  0  0
  2  8  1  0  0  0  0
  2  9  2  0  0  0  0
  3  4  2  0  0  0  0
  3 11  1  0  0  0  0
  4  9  1  0  0  0  0
  4 10  1  0  0  0  0
  5  6  1  0  0  0  0
  5 10  1  0  0  0  0
  6 11  1  0  0  0  0
  7 11  1  0  0  0  0
  1 12  1  0  0  0  0
  2 13  1  0  0  0  0
  5 14  1  0  0  0  0
  5 15  1  0  0  0  0
  6 16  1  0  0  0  0
  6 17  1  0  0  0  0
  7 18  1  0  0  0  0
  7 19  1  0  0  0  0
  7 20  1  0  0  0  0
 10 21  1  0  0  0  0
M  END
> <HYBRID receptor title>
5S18(A) > WOY(A-201)

> <HYBRID receptor filename>
data/docking/5s18.oedu

> <HYBRID Chemgauss4 score>
-6.630207

> <HYBRID receptor title>
5S18(A) > WOY(A-201)

> <HYBRID receptor filename>
data/docking/5s18.oedu

> <Dock Type>
Hybrid

$$$$
MOL0187
  -OEChem-07032400353D

 24 25  0     1  0  0  0  0  0999 V2000
   -2.3440   14.9834    1.2723 C   0  0  0  0  0  0  0  0  0  0  0  0
   -0.1151   15.0754    0.7814 C   0  0  0  0  0  0  0  0  0  0  0  0
   -2.6195   14.8328   -0.0621 C   0  0  0  0  0  0  0  0  0  0  0  0
   -1.5544   14.8221   -0.9483 C   0  0  0  0  0  0  0  0  0  0  0  0
   -3.9149   14.7086   -0.7777 C   0  0  0  0  0  0  0  0  0  0  0  0
   -3.4403   14.3298   -2.1937 C   0  0  0  0  0  0  0  0  0  0  0  0
   -1.2377   14.4149   -3.4451 C   0  0  0  0  0  0  0  0  0  0  0  0
   -0.7510   15.6948   -4.1055 C   0  0  0  0  0  0  0  0  0  0  0  0
   -1.0811   15.1051    1.7287 N   0  0  0  0  0  0  0  0  0  0  0  0
   -0.2747   14.9405   -0.5524 N   0  0  0  0  0  0  0  0  0  0  0  0
   -2.0195   14.6723   -2.2856 N   0  0  2  0  0  0  0  0  0  0  0  0
   -1.8395   16.5415   -4.5132 N   0  0  0  0  0  0  0  0  0  0  0  0
   -3.1243   15.0135    2.0230 H   0  0  0  0  0  0  0  0  0  0  0  0
    0.9046   15.1727    1.1350 H   0  0  0  0  0  0  0  0  0  0  0  0
   -4.5512   13.9297   -0.3484 H   0  0  0  0  0  0  0  0  0  0  0  0
   -4.4404   15.6689   -0.7826 H   0  0  0  0  0  0  0  0  0  0  0  0
   -3.5661   13.2502   -2.3476 H   0  0  0  0  0  0  0  0  0  0  0  0
   -4.0251   14.8463   -2.9623 H   0  0  0  0  0  0  0  0  0  0  0  0
   -1.8675   13.8477   -4.1361 H   0  0  0  0  0  0  0  0  0  0  0  0
   -0.3970   13.7833   -3.1406 H   0  0  0  0  0  0  0  0  0  0  0  0
   -0.1512   15.4818   -4.9957 H   0  0  0  0  0  0  0  0  0  0  0  0
   -0.1402   16.2711   -3.4040 H   0  0  0  0  0  0  0  0  0  0  0  0
   -2.3904   16.0806   -5.2426 H   0  0  0  0  0  0  0  0  0  0  0  0
   -1.4785   17.3975   -4.9439 H   0  0  0  0  0  0  0  0  0  0  0  0
  1  3  1  0  0  0  0
  1  9  2  0  0  0  0
  2  9  1  0  0  0  0
  2 10  2  0  0  0  0
  3  4  2  0  0  0  0
  3  5  1  0  0  0  0
  4 10  1  0  0  0  0
  4 11  1  0  0  0  0
  5  6  1  0  0  0  0
  6 11  1  0  0  0  0
  7  8  1  0  0  0  0
  7 11  1  0  0  0  0
  8 12  1  0  0  0  0
  1 13  1  0  0  0  0
  2 14  1  0  0  0  0
  5 15  1  0  0  0  0
  5 16  1  0  0  0  0
  6 17  1  0  0  0  0
  6 18  1  0  0  0  0
  7 19  1  0  0  0  0
  7 20  1  0  0  0  0
  8 21  1  0  0  0  0
  8 22  1  0  0  0  0
 12 23  1  0  0  0  0
 12 24  1  0  0  0  0
M  END
> <HYBRID receptor title>
5S18(A) > WOY(A-201)

> <HYBRID receptor filename>
data/docking/5s18.oedu

> <HYBRID Chemgauss4 score>
-6.615938

> <HYBRID receptor title>
5S18(A) > WOY(A-201)

> <HYBRID receptor filename>
data/docking/5s18.oedu

> <Dock Type>
Hybrid

$$$$
MOL0089
  -OEChem-07032400353D

 20 21  0     1  0  0  0  0  0999 V2000
   -1.9043   14.5320   -0.9315 C   0  0  0  0  0  0  0  0  0  0  0  0
   -0.5457   14.8992    0.8690 C   0  0  0  0  0  0  0  0  0  0  0  0
   -2.9979   14.8042   -0.1503 C   0  0  0  0  0  0  0  0  0  0  0  0
   -2.7743   15.1360    1.1775 C   0  0  0  0  0  0  0  0  0  0  0  0
   -5.0666   14.9864    0.9497 C   0  0  0  0  0  0  0  0  0  0  0  0
   -4.4555   14.8659   -0.4711 C   0  0  2  0  0  0  0  0  0  0  0  0
   -4.9819   13.6599   -1.2329 C   0  0  0  0  0  0  0  0  0  0  0  0
   -0.6489   14.5676   -0.4395 N   0  0  0  0  0  0  0  0  0  0  0  0
   -1.5486   15.1941    1.7240 N   0  0  0  0  0  0  0  0  0  0  0  0
   -3.9870   15.3938    1.8336 N   0  0  0  0  0  0  0  0  0  0  0  0
   -4.6585   13.8106   -2.6052 O   0  0  0  0  0  0  0  0  0  0  0  0
   -1.9917   14.2808   -1.9816 H   0  0  0  0  0  0  0  0  0  0  0  0
    0.4579   14.9326    1.2762 H   0  0  0  0  0  0  0  0  0  0  0  0
   -5.8830   15.7160    0.9659 H   0  0  0  0  0  0  0  0  0  0  0  0
   -5.4685   14.0261    1.2952 H   0  0  0  0  0  0  0  0  0  0  0  0
   -4.6535   15.7859   -1.0348 H   0  0  0  0  0  0  0  0  0  0  0  0
   -6.0662   13.5907   -1.1273 H   0  0  0  0  0  0  0  0  0  0  0  0
   -4.5205   12.7443   -0.8565 H   0  0  0  0  0  0  0  0  0  0  0  0
   -4.0682   15.5829    2.8207 H   0  0  0  0  0  0  0  0  0  0  0  0
   -5.0058   13.0286   -3.0657 H   0  0  0  0  0  0  0  0  0  0  0  0
  1  3  1  0  0  0  0
  1  8  2  0  0  0  0
  2  8  1  0  0  0  0
  2  9  2  0  0  0  0
  3  4  2  0  0  0  0
  3  6  1  0  0  0  0
  4  9  1  0  0  0  0
  4 10  1  0  0  0  0
  5  6  1  0  0  0  0
  5 10  1  0  0  0  0
  6  7  1  0  0  0  0
  7 11  1  0  0  0  0
  1 12  1  0  0  0  0
  2 13  1  0  0  0  0
  5 14  1  0  0  0  0
  5 15  1  0  0  0  0
  6 16  1  0  0  0  0
  7 17  1  0  0  0  0
  7 18  1  0  0  0  0
 10 19  1  0  0  0  0
 11 20  1  0  0  0  0
M  END
> <HYBRID receptor title>
5S18(A) > WOY(A-201)

> <HYBRID receptor filename>
data/docking/5s18.oedu

> <HYBRID Chemgauss4 score>
-6.613954

> <HYBRID receptor title>
5S18(A) > WOY(A-201)

> <HYBRID receptor filename>
data/docking/5s18.oedu

> <Dock Type>
Hybrid

$$$$
MOL0084
  -OEChem-07032400353D

 28 30  0     1  0  0  0  0  0999 V2000
    1.2357   13.8165   -4.3064 C   0  0  0  0  0  0  0  0  0  0  0  0
   -0.0696   13.4041   -4.0626 C   0  0  0  0  0  0  0  0  0  0  0  0
    1.5738   15.1219   -3.9859 C   0  0  0  0  0  0  0  0  0  0  0  0
   -3.0449   15.3165    1.3792 C   0  0  0  0  0  0  0  0  0  0  0  0
   -0.5469   15.5797   -3.2286 C   0  0  0  0  0  0  0  0  0  0  0  0
   -1.0427   14.3048    0.9488 C   0  0  0  0  0  0  0  0  0  0  0  0
   -3.3768   15.1963    0.0546 C   0  0  0  0  0  0  0  0  0  0  0  0
   -0.9840   14.2962   -3.5138 C   0  0  0  0  0  0  0  0  0  0  0  0
   -2.4544   14.6075   -0.7956 C   0  0  0  0  0  0  0  0  0  0  0  0
   -4.5872   15.6340   -0.6863 C   0  0  0  0  0  0  0  0  0  0  0  0
   -4.3663   14.9532   -2.0507 C   0  0  0  0  0  0  0  0  0  0  0  0
   -2.4008   13.8810   -3.2387 C   0  0  0  0  0  0  0  0  0  0  0  0
    0.7128   16.0168   -3.4514 N   0  0  0  0  0  0  0  0  0  0  0  0
   -1.8677   14.8691    1.8612 N   0  0  0  0  0  0  0  0  0  0  0  0
   -1.2650   14.1439   -0.3731 N   0  0  0  0  0  0  0  0  0  0  0  0
   -2.9532   14.5770   -2.1288 N   0  0  2  0  0  0  0  0  0  0  0  0
    1.9651   13.1374   -4.7325 H   0  0  0  0  0  0  0  0  0  0  0  0
   -0.3649   12.3863   -4.3025 H   0  0  0  0  0  0  0  0  0  0  0  0
    2.5793   15.4927   -4.1554 H   0  0  0  0  0  0  0  0  0  0  0  0
   -3.7087   15.7763    2.1012 H   0  0  0  0  0  0  0  0  0  0  0  0
   -1.2154   16.3198   -2.7996 H   0  0  0  0  0  0  0  0  0  0  0  0
   -0.0929   13.9414    1.3232 H   0  0  0  0  0  0  0  0  0  0  0  0
   -5.5097   15.2875   -0.2122 H   0  0  0  0  0  0  0  0  0  0  0  0
   -4.5979   16.7239   -0.7875 H   0  0  0  0  0  0  0  0  0  0  0  0
   -4.9883   14.0511   -2.1170 H   0  0  0  0  0  0  0  0  0  0  0  0
   -4.6488   15.6142   -2.8771 H   0  0  0  0  0  0  0  0  0  0  0  0
   -3.0359   14.0755   -4.1093 H   0  0  0  0  0  0  0  0  0  0  0  0
   -2.4613   12.8087   -3.0251 H   0  0  0  0  0  0  0  0  0  0  0  0
  1  2  2  0  0  0  0
  1  3  1  0  0  0  0
  2  8  1  0  0  0  0
  3 13  2  0  0  0  0
  4  7  1  0  0  0  0
  4 14  2  0  0  0  0
  5  8  2  0  0  0  0
  5 13  1  0  0  0  0
  6 14  1  0  0  0  0
  6 15  2  0  0  0  0
  7  9  2  0  0  0  0
  7 10  1  0  0  0  0
  8 12  1  0  0  0  0
  9 15  1  0  0  0  0
  9 16  1  0  0  0  0
 10 11  1  0  0  0  0
 11 16  1  0  0  0  0
 12 16  1  0  0  0  0
  1 17  1  0  0  0  0
  2 18  1  0  0  0  0
  3 19  1  0  0  0  0
  4 20  1  0  0  0  0
  5 21  1  0  0  0  0
  6 22  1  0  0  0  0
 10 23  1  0  0  0  0
 10 24  1  0  0  0  0
 11 25  1  0  0  0  0
 11 26  1  0  0  0  0
 12 27  1  0  0  0  0
 12 28  1  0  0  0  0
M  END
> <HYBRID receptor title>
5S18(A) > WOY(A-201)

> <HYBRID receptor filename>
data/docking/5s18.oedu

> <HYBRID Chemgauss4 score>
-6.606561

> <HYBRID receptor title>
5S18(A) > WOY(A-201)

> <HYBRID receptor filename>
data/docking/5s18.oedu

> <Dock Type>
Hybrid

$$$$
MOL0051
  -OEChem-07032400353D

 17 18  0     0  0  0  0  0  0999 V2000
   -1.0725   14.5079   -0.9178 C   0  0  0  0  0  0  0  0  0  0  0  0
   -0.1360   14.9253    1.1075 C   0  0  0  0  0  0  0  0  0  0  0  0
   -2.3464   14.6028   -0.3841 C   0  0  0  0  0  0  0  0  0  0  0  0
   -2.4130   14.8753    0.9714 C   0  0  0  0  0  0  0  0  0  0  0  0
   -4.8799   14.8380    0.9078 C   0  0  0  0  0  0  0  0  0  0  0  0
   -3.5731   14.4247   -1.2063 C   0  0  0  0  0  0  0  0  0  0  0  0
    0.0568   14.6642   -0.1978 N   0  0  0  0  0  0  0  0  0  0  0  0
   -1.3171   15.0419    1.7440 N   0  0  0  0  0  0  0  0  0  0  0  0
   -3.6769   14.9845    1.5752 N   0  0  0  0  0  0  0  0  0  0  0  0
   -4.8026   14.5659   -0.4456 N   0  0  0  0  0  0  0  0  0  0  0  0
   -5.9629   14.9443    1.4887 O   0  0  0  0  0  0  0  0  0  0  0  0
   -0.9181   14.2960   -1.9711 H   0  0  0  0  0  0  0  0  0  0  0  0
    0.7536   15.0561    1.7113 H   0  0  0  0  0  0  0  0  0  0  0  0
   -3.6083   15.1701   -2.0076 H   0  0  0  0  0  0  0  0  0  0  0  0
   -3.5908   13.4255   -1.6537 H   0  0  0  0  0  0  0  0  0  0  0  0
   -3.7097   15.1849    2.5703 H   0  0  0  0  0  0  0  0  0  0  0  0
   -5.6774   14.4558   -0.9493 H   0  0  0  0  0  0  0  0  0  0  0  0
  1  3  1  0  0  0  0
  1  7  2  0  0  0  0
  2  7  1  0  0  0  0
  2  8  2  0  0  0  0
  3  4  2  0  0  0  0
  3  6  1  0  0  0  0
  4  8  1  0  0  0  0
  4  9  1  0  0  0  0
  5  9  1  0  0  0  0
  5 10  1  0  0  0  0
  5 11  2  0  0  0  0
  6 10  1  0  0  0  0
  1 12  1  0  0  0  0
  2 13  1  0  0  0  0
  6 14  1  0  0  0  0
  6 15  1  0  0  0  0
  9 16  1  0  0  0  0
 10 17  1  0  0  0  0
M  END
> <HYBRID receptor title>
5S18(A) > WOY(A-201)

> <HYBRID receptor filename>
data/docking/5s18.oedu

> <HYBRID Chemgauss4 score>
-6.604566

> <HYBRID receptor title>
5S18(A) > WOY(A-201)

> <HYBRID receptor filename>
data/docking/5s18.oedu

> <Dock Type>
Hybrid

$$$$
MOL0152
  -OEChem-07032400353D

 25 27  0     1  0  0  0  0  0999 V2000
   -0.6316   14.4821   -0.7115 C   0  0  0  0  0  0  0  0  0  0  0  0
    0.3407   14.9015    1.2912 C   0  0  0  0  0  0  0  0  0  0  0  0
   -1.8961   14.6982   -0.1864 C   0  0  0  0  0  0  0  0  0  0  0  0
   -1.9449   15.0677    1.1599 C   0  0  0  0  0  0  0  0  0  0  0  0
   -5.9286   13.9583   -2.2769 C   0  0  0  0  0  0  0  0  0  0  0  0
   -6.8081   14.4291   -1.1523 C   0  0  0  0  0  0  0  0  0  0  0  0
   -4.3215   15.5900    0.8843 C   0  0  0  0  0  0  0  0  0  0  0  0
   -5.4176   14.9814   -1.3002 C   0  0  0  0  0  0  0  0  0  0  0  0
   -4.3333   14.6098   -0.2955 C   0  0  1  0  0  0  0  0  0  0  0  0
    0.5096   14.5714    0.0005 N   0  0  0  0  0  0  0  0  0  0  0  0
   -0.8244   15.1550    1.9164 N   0  0  0  0  0  0  0  0  0  0  0  0
   -3.0382   14.6026   -0.9609 N   0  0  0  0  0  0  0  0  0  0  0  0
   -3.1788   15.3459    1.7423 N   0  0  0  0  0  0  0  0  0  0  0  0
   -0.4943   14.2140   -1.7550 H   0  0  0  0  0  0  0  0  0  0  0  0
    1.2376   14.9742    1.8939 H   0  0  0  0  0  0  0  0  0  0  0  0
   -5.5390   12.9493   -2.2228 H   0  0  0  0  0  0  0  0  0  0  0  0
   -6.1683   14.2937   -3.2785 H   0  0  0  0  0  0  0  0  0  0  0  0
   -7.6378   15.0798   -1.3999 H   0  0  0  0  0  0  0  0  0  0  0  0
   -7.0076   13.7351   -0.3451 H   0  0  0  0  0  0  0  0  0  0  0  0
   -4.2910   16.6275    0.5269 H   0  0  0  0  0  0  0  0  0  0  0  0
   -5.2421   15.4872    1.4701 H   0  0  0  0  0  0  0  0  0  0  0  0
   -5.3164   16.0021   -1.6487 H   0  0  0  0  0  0  0  0  0  0  0  0
   -4.5481   13.6030    0.0709 H   0  0  0  0  0  0  0  0  0  0  0  0
   -2.9617   14.2309   -1.9006 H   0  0  0  0  0  0  0  0  0  0  0  0
   -3.1999   15.6339    2.7126 H   0  0  0  0  0  0  0  0  0  0  0  0
  1  3  1  0  0  0  0
  1 10  2  0  0  0  0
  2 10  1  0  0  0  0
  2 11  2  0  0  0  0
  3  4  2  0  0  0  0
  3 12  1  0  0  0  0
  4 11  1  0  0  0  0
  4 13  1  0  0  0  0
  5  6  1  0  0  0  0
  5  8  1  0  0  0  0
  6  8  1  0  0  0  0
  7  9  1  0  0  0  0
  7 13  1  0  0  0  0
  8  9  1  0  0  0  0
  9 12  1  0  0  0  0
  1 14  1  0  0  0  0
  2 15  1  0  0  0  0
  5 16  1  0  0  0  0
  5 17  1  0  0  0  0
  6 18  1  0  0  0  0
  6 19  1  0  0  0  0
  7 20  1  0  0  0  0
  7 21  1  0  0  0  0
  8 22  1  0  0  0  0
  9 23  1  0  0  0  0
 12 24  1  0  0  0  0
 13 25  1  0  0  0  0
M  END
> <HYBRID receptor title>
5S18(A) > WOY(A-201)

> <HYBRID receptor filename>
data/docking/5s18.oedu

> <HYBRID Chemgauss4 score>
-6.566340

> <HYBRID receptor title>
5S18(A) > WOY(A-201)

> <HYBRID receptor filename>
data/docking/5s18.oedu

> <Dock Type>
Hybrid

$$$$
MOL0163
  -OEChem-07032400353D

 30 32  0     0  0  0  0  0  0999 V2000
   -0.4637    9.7446   -6.2354 C   0  0  0  0  0  0  0  0  0  0  0  0
   -1.7451   10.2410   -6.4748 C   0  0  0  0  0  0  0  0  0  0  0  0
    0.3407   10.3334   -5.2598 C   0  0  0  0  0  0  0  0  0  0  0  0
   -2.2222   11.3257   -5.7387 C   0  0  0  0  0  0  0  0  0  0  0  0
   -0.1364   11.4181   -4.5237 C   0  0  0  0  0  0  0  0  0  0  0  0
   -2.6799   15.2610    1.3169 C   0  0  0  0  0  0  0  0  0  0  0  0
   -0.5334   14.4868    1.1924 C   0  0  0  0  0  0  0  0  0  0  0  0
   -2.8469   14.9991   -0.0192 C   0  0  0  0  0  0  0  0  0  0  0  0
   -1.4177   11.9145   -4.7631 C   0  0  0  0  0  0  0  0  0  0  0  0
   -1.7697   14.4637   -0.6975 C   0  0  0  0  0  0  0  0  0  0  0  0
   -1.2433   13.7270   -3.0069 C   0  0  0  0  0  0  0  0  0  0  0  0
   -4.0354   15.2021   -0.8888 C   0  0  0  0  0  0  0  0  0  0  0  0
   -3.5177   14.6998   -2.2434 C   0  0  0  0  0  0  0  0  0  0  0  0
   -1.5187   15.0120    1.9575 N   0  0  0  0  0  0  0  0  0  0  0  0
   -0.5868   14.1906   -0.1232 N   0  0  0  0  0  0  0  0  0  0  0  0
   -2.1179   14.2603   -2.0500 N   0  0  0  0  0  0  0  0  0  0  0  0
   -1.9017   13.0163   -4.0153 N   0  0  0  0  0  0  0  0  0  0  0  0
   -0.0227   13.8828   -2.9448 O   0  0  0  0  0  0  0  0  0  0  0  0
   -0.0920    8.9010   -6.8095 H   0  0  0  0  0  0  0  0  0  0  0  0
   -2.3713    9.7837   -7.2354 H   0  0  0  0  0  0  0  0  0  0  0  0
    1.3386    9.9476   -5.0735 H   0  0  0  0  0  0  0  0  0  0  0  0
   -3.2223   11.7042   -5.9354 H   0  0  0  0  0  0  0  0  0  0  0  0
    0.5001   11.8689   -3.7661 H   0  0  0  0  0  0  0  0  0  0  0  0
   -3.4727   15.6811    1.9243 H   0  0  0  0  0  0  0  0  0  0  0  0
    0.4048   14.2814    1.6940 H   0  0  0  0  0  0  0  0  0  0  0  0
   -4.8837   14.6042   -0.5427 H   0  0  0  0  0  0  0  0  0  0  0  0
   -4.3122   16.2594   -0.9379 H   0  0  0  0  0  0  0  0  0  0  0  0
   -4.1081   13.8536   -2.6124 H   0  0  0  0  0  0  0  0  0  0  0  0
   -3.5400   15.4902   -3.0022 H   0  0  0  0  0  0  0  0  0  0  0  0
   -2.8836   13.3383   -4.2521 H   0  0  0  0  0  0  0  0  0  0  0  0
  1  2  1  0  0  0  0
  1  3  2  0  0  0  0
  2  4  2  0  0  0  0
  3  5  1  0  0  0  0
  4  9  1  0  0  0  0
  5  9  2  0  0  0  0
  6  8  1  0  0  0  0
  6 14  2  0  0  0  0
  7 14  1  0  0  0  0
  7 15  2  0  0  0  0
  8 10  2  0  0  0  0
  8 12  1  0  0  0  0
  9 17  1  0  0  0  0
 10 15  1  0  0  0  0
 10 16  1  0  0  0  0
 11 16  1  0  0  0  0
 11 17  1  0  0  0  0
 11 18  2  0  0  0  0
 12 13  1  0  0  0  0
 13 16  1  0  0  0  0
  1 19  1  0  0  0  0
  2 20  1  0  0  0  0
  3 21  1  0  0  0  0
  4 22  1  0  0  0  0
  5 23  1  0  0  0  0
  6 24  1  0  0  0  0
  7 25  1  0  0  0  0
 12 26  1  0  0  0  0
 12 27  1  0  0  0  0
 13 28  1  0  0  0  0
 13 29  1  0  0  0  0
 17 30  1  0  0  0  0
M  END
> <HYBRID receptor title>
5S18(A) > WOY(A-201)

> <HYBRID receptor filename>
data/docking/5s18.oedu

> <HYBRID Chemgauss4 score>
-6.564200

> <HYBRID receptor title>
5S18(A) > WOY(A-201)

> <HYBRID receptor filename>
data/docking/5s18.oedu

> <Dock Type>
Hybrid

$$$$
MOL0020
  -OEChem-07032400353D

 21 22  0     1  0  0  0  0  0999 V2000
   -1.2598   14.5596   -0.9589 C   0  0  0  0  0  0  0  0  0  0  0  0
   -0.3243   14.9198    1.0728 C   0  0  0  0  0  0  0  0  0  0  0  0
   -2.5373   14.6573   -0.4308 C   0  0  0  0  0  0  0  0  0  0  0  0
   -2.6164   14.8678    0.9480 C   0  0  0  0  0  0  0  0  0  0  0  0
   -4.9515   14.8770   -0.6441 C   0  0  0  0  0  0  0  0  0  0  0  0
   -5.0364   14.4558    0.8285 C   0  0  2  0  0  0  0  0  0  0  0  0
   -6.2987   15.0098    1.4813 C   0  0  0  0  0  0  0  0  0  0  0  0
   -0.1302   14.6897   -0.2353 N   0  0  0  0  0  0  0  0  0  0  0  0
   -1.5071   15.0176    1.7102 N   0  0  0  0  0  0  0  0  0  0  0  0
   -3.6683   14.5094   -1.2119 N   0  0  0  0  0  0  0  0  0  0  0  0
   -3.8678   14.9291    1.5567 N   0  0  0  0  0  0  0  0  0  0  0  0
   -1.1012   14.3747   -2.0172 H   0  0  0  0  0  0  0  0  0  0  0  0
    0.5634   15.0372    1.6820 H   0  0  0  0  0  0  0  0  0  0  0  0
   -5.7502   14.3971   -1.2206 H   0  0  0  0  0  0  0  0  0  0  0  0
   -5.0895   15.9611   -0.7443 H   0  0  0  0  0  0  0  0  0  0  0  0
   -5.0660   13.3600    0.8880 H   0  0  0  0  0  0  0  0  0  0  0  0
   -6.2937   16.0982    1.4352 H   0  0  0  0  0  0  0  0  0  0  0  0
   -6.3446   14.6989    2.5244 H   0  0  0  0  0  0  0  0  0  0  0  0
   -7.1810   14.6367    0.9609 H   0  0  0  0  0  0  0  0  0  0  0  0
   -3.5722   14.4383   -2.2176 H   0  0  0  0  0  0  0  0  0  0  0  0
   -3.9025   15.0467    2.5620 H   0  0  0  0  0  0  0  0  0  0  0  0
  1  3  1  0  0  0  0
  1  8  2  0  0  0  0
  2  8  1  0  0  0  0
  2  9  2  0  0  0  0
  3  4  2  0  0  0  0
  3 10  1  0  0  0  0
  4  9  1  0  0  0  0
  4 11  1  0  0  0  0
  5  6  1  0  0  0  0
  5 10  1  0  0  0  0
  6  7  1  0  0  0  0
  6 11  1  0  0  0  0
  1 12  1  0  0  0  0
  2 13  1  0  0  0  0
  5 14  1  0  0  0  0
  5 15  1  0  0  0  0
  6 16  1  0  0  0  0
  7 17  1  0  0  0  0
  7 18  1  0  0  0  0
  7 19  1  0  0  0  0
 10 20  1  0  0  0  0
 11 21  1  0  0  0  0
M  END
> <HYBRID receptor title>
5S18(A) > WOY(A-201)

> <HYBRID receptor filename>
data/docking/5s18.oedu

> <HYBRID Chemgauss4 score>
-6.562868

> <HYBRID receptor title>
5S18(A) > WOY(A-201)

> <HYBRID receptor filename>
data/docking/5s18.oedu

> <Dock Type>
Hybrid

$$$$
MOL0005
  -OEChem-07032400353D

 22 23  0     1  0  0  0  0  0999 V2000
   -2.1929   15.2780    1.4834 C   0  0  0  0  0  0  0  0  0  0  0  0
   -0.0227   14.6801    1.0958 C   0  0  0  0  0  0  0  0  0  0  0  0
   -2.4745   15.0695    0.1581 C   0  0  0  0  0  0  0  0  0  0  0  0
   -1.4406   14.6618   -0.6696 C   0  0  0  0  0  0  0  0  0  0  0  0
   -3.7370   15.2421   -0.6047 C   0  0  0  0  0  0  0  0  0  0  0  0
   -3.3644   14.5945   -1.9521 C   0  0  0  0  0  0  0  0  0  0  0  0
   -0.3812   14.9604   -3.8276 C   0  0  0  0  0  0  0  0  0  0  0  0
   -1.2068   13.9160   -3.0962 C   0  0  0  0  0  0  0  0  0  0  0  0
   -0.9572   15.0843    1.9872 N   0  0  0  0  0  0  0  0  0  0  0  0
   -0.1888   14.4537   -0.2248 N   0  0  0  0  0  0  0  0  0  0  0  0
   -1.9036   14.5076   -2.0071 N   0  0  2  0  0  0  0  0  0  0  0  0
   -2.9458   15.6088    2.1885 H   0  0  0  0  0  0  0  0  0  0  0  0
    0.9750   14.5212    1.4879 H   0  0  0  0  0  0  0  0  0  0  0  0
   -4.5784   14.7267   -0.1333 H   0  0  0  0  0  0  0  0  0  0  0  0
   -3.9640   16.3058   -0.7288 H   0  0  0  0  0  0  0  0  0  0  0  0
   -3.7923   13.5850   -2.0062 H   0  0  0  0  0  0  0  0  0  0  0  0
   -3.7611   15.1701   -2.7951 H   0  0  0  0  0  0  0  0  0  0  0  0
    0.3427   15.4149   -3.1439 H   0  0  0  0  0  0  0  0  0  0  0  0
   -1.0147   15.7595   -4.2273 H   0  0  0  0  0  0  0  0  0  0  0  0
    0.1741   14.5146   -4.6599 H   0  0  0  0  0  0  0  0  0  0  0  0
   -1.9281   13.4662   -3.7862 H   0  0  0  0  0  0  0  0  0  0  0  0
   -0.5543   13.1184   -2.7263 H   0  0  0  0  0  0  0  0  0  0  0  0
  1  3  1  0  0  0  0
  1  9  2  0  0  0  0
  2  9  1  0  0  0  0
  2 10  2  0  0  0  0
  3  4  2  0  0  0  0
  3  5  1  0  0  0  0
  4 10  1  0  0  0  0
  4 11  1  0  0  0  0
  5  6  1  0  0  0  0
  6 11  1  0  0  0  0
  7  8  1  0  0  0  0
  8 11  1  0  0  0  0
  1 12  1  0  0  0  0
  2 13  1  0  0  0  0
  5 14  1  0  0  0  0
  5 15  1  0  0  0  0
  6 16  1  0  0  0  0
  6 17  1  0  0  0  0
  7 18  1  0  0  0  0
  7 19  1  0  0  0  0
  7 20  1  0  0  0  0
  8 21  1  0  0  0  0
  8 22  1  0  0  0  0
M  END
> <HYBRID receptor title>
5S18(A) > WOY(A-201)

> <HYBRID receptor filename>
data/docking/5s18.oedu

> <HYBRID Chemgauss4 score>
-6.559036

> <HYBRID receptor title>
5S18(A) > WOY(A-201)

> <HYBRID receptor filename>
data/docking/5s18.oedu

> <Dock Type>
Hybrid

$$$$
MOL0172
  -OEChem-07032400353D

 20 21  0     1  0  0  0  0  0999 V2000
    0.3144   14.8771   -3.0819 C   0  0  0  0  0  0  0  0  0  0  0  0
   -2.6246   15.2307    1.3909 C   0  0  0  0  0  0  0  0  0  0  0  0
   -0.3957   14.7404    1.2952 C   0  0  0  0  0  0  0  0  0  0  0  0
   -2.7059   15.0709    0.0318 C   0  0  0  0  0  0  0  0  0  0  0  0
   -1.5473   14.7437   -0.6544 C   0  0  0  0  0  0  0  0  0  0  0  0
   -3.8545   15.2260   -0.8967 C   0  0  0  0  0  0  0  0  0  0  0  0
   -3.2651   14.6557   -2.2010 C   0  0  0  0  0  0  0  0  0  0  0  0
   -0.9379   14.1185   -3.0497 C   0  0  0  0  0  0  0  0  0  0  0  0
    1.3077   15.4757   -3.1100 N   0  0  0  0  0  0  0  0  0  0  0  0
   -1.4649   15.0653    2.0586 N   0  0  0  0  0  0  0  0  0  0  0  0
   -0.3626   14.5673   -0.0433 N   0  0  0  0  0  0  0  0  0  0  0  0
   -1.8087   14.6313   -2.0494 N   0  0  2  0  0  0  0  0  0  0  0  0
   -3.4843   15.4982    1.9931 H   0  0  0  0  0  0  0  0  0  0  0  0
    0.5428   14.6050    1.8197 H   0  0  0  0  0  0  0  0  0  0  0  0
   -4.7289   14.6558   -0.5711 H   0  0  0  0  0  0  0  0  0  0  0  0
   -4.1114   16.2840   -1.0106 H   0  0  0  0  0  0  0  0  0  0  0  0
   -3.6332   13.6330   -2.3550 H   0  0  0  0  0  0  0  0  0  0  0  0
   -3.5653   15.2521   -3.0691 H   0  0  0  0  0  0  0  0  0  0  0  0
   -1.4386   14.1703   -4.0210 H   0  0  0  0  0  0  0  0  0  0  0  0
   -0.7324   13.0638   -2.8417 H   0  0  0  0  0  0  0  0  0  0  0  0
  1  8  1  0  0  0  0
  1  9  3  0  0  0  0
  2  4  1  0  0  0  0
  2 10  2  0  0  0  0
  3 10  1  0  0  0  0
  3 11  2  0  0  0  0
  4  5  2  0  0  0  0
  4  6  1  0  0  0  0
  5 11  1  0  0  0  0
  5 12  1  0  0  0  0
  6  7  1  0  0  0  0
  7 12  1  0  0  0  0
  8 12  1  0  0  0  0
  2 13  1  0  0  0  0
  3 14  1  0  0  0  0
  6 15  1  0  0  0  0
  6 16  1  0  0  0  0
  7 17  1  0  0  0  0
  7 18  1  0  0  0  0
  8 19  1  0  0  0  0
  8 20  1  0  0  0  0
M  END
> <HYBRID receptor title>
5S18(A) > WOY(A-201)

> <HYBRID receptor filename>
data/docking/5s18.oedu

> <HYBRID Chemgauss4 score>
-6.547033

> <HYBRID receptor title>
5S18(A) > WOY(A-201)

> <HYBRID receptor filename>
data/docking/5s18.oedu

> <Dock Type>
Hybrid

$$$$
MOL0127
  -OEChem-07032400353D

 16 17  0     0  0  0  0  0  0999 V2000
   -0.7899   14.5139   -2.3056 C   0  0  0  0  0  0  0  0  0  0  0  0
   -1.9601   14.5943   -3.0663 C   0  0  0  0  0  0  0  0  0  0  0  0
   -3.2298   14.9777   -1.0611 C   0  0  0  0  0  0  0  0  0  0  0  0
   -2.0272   15.0367    1.0805 C   0  0  0  0  0  0  0  0  0  0  0  0
    0.2150   14.7350    1.1287 C   0  0  0  0  0  0  0  0  0  0  0  0
   -2.0485   14.8951   -0.3036 C   0  0  0  0  0  0  0  0  0  0  0  0
   -0.8090   14.6609   -0.9210 C   0  0  0  0  0  0  0  0  0  0  0  0
   -3.1812   14.8271   -2.4431 C   0  0  0  0  0  0  0  0  0  0  0  0
   -0.9090   14.9610    1.8268 N   0  0  0  0  0  0  0  0  0  0  0  0
    0.3271   14.5800   -0.2061 N   0  0  0  0  0  0  0  0  0  0  0  0
   -4.3038   14.9048   -3.1688 F   0  0  0  0  0  0  0  0  0  0  0  0
    0.1533   14.3307   -2.8170 H   0  0  0  0  0  0  0  0  0  0  0  0
   -1.9138   14.4752   -4.1447 H   0  0  0  0  0  0  0  0  0  0  0  0
   -4.1870   15.1601   -0.5788 H   0  0  0  0  0  0  0  0  0  0  0  0
   -2.9367   15.2201    1.6456 H   0  0  0  0  0  0  0  0  0  0  0  0
    1.1338   14.6685    1.6985 H   0  0  0  0  0  0  0  0  0  0  0  0
  1  2  2  0  0  0  0
  1  7  1  0  0  0  0
  2  8  1  0  0  0  0
  3  6  1  0  0  0  0
  3  8  2  0  0  0  0
  4  6  1  0  0  0  0
  4  9  2  0  0  0  0
  5  9  1  0  0  0  0
  5 10  2  0  0  0  0
  6  7  2  0  0  0  0
  7 10  1  0  0  0  0
  8 11  1  0  0  0  0
  1 12  1  0  0  0  0
  2 13  1  0  0  0  0
  3 14  1  0  0  0  0
  4 15  1  0  0  0  0
  5 16  1  0  0  0  0
M  END
> <HYBRID receptor title>
5S18(A) > WOY(A-201)

> <HYBRID receptor filename>
data/docking/5s18.oedu

> <HYBRID Chemgauss4 score>
-6.533947

> <HYBRID receptor title>
5S18(A) > WOY(A-201)

> <HYBRID receptor filename>
data/docking/5s18.oedu

> <Dock Type>
Hybrid

$$$$
MOL0182
  -OEChem-07032400353D

 29 30  0     1  0  0  0  0  0999 V2000
   -2.3750   15.0217    1.1052 C   0  0  0  0  0  0  0  0  0  0  0  0
   -0.1686   14.5386    0.8666 C   0  0  0  0  0  0  0  0  0  0  0  0
   -2.5793   14.9168   -0.2604 C   0  0  0  0  0  0  0  0  0  0  0  0
   -1.4610   14.5836   -1.0168 C   0  0  0  0  0  0  0  0  0  0  0  0
   -3.9337   15.0765   -0.8807 C   0  0  0  0  0  0  0  0  0  0  0  0
   -1.5629   14.4847   -2.5196 C   0  0  0  0  0  0  0  0  0  0  0  0
   -3.8650   15.2063   -2.4076 C   0  0  0  0  0  0  0  0  0  0  0  0
   -2.7222   11.9976   -4.0047 C   0  0  0  0  0  0  0  0  0  0  0  0
   -3.3496   12.8801   -2.9338 C   0  0  0  0  0  0  0  0  0  0  0  0
   -3.1384   10.5361   -3.8870 C   0  0  0  0  0  0  0  0  0  0  0  0
   -1.1796   14.8428    1.7003 N   0  0  0  0  0  0  0  0  0  0  0  0
   -0.2368   14.3988   -0.4717 N   0  0  0  0  0  0  0  0  0  0  0  0
   -2.9237   14.2737   -3.0423 N   0  0  2  0  0  0  0  0  0  0  0  0
   -2.5200    9.7991   -4.9337 O   0  0  0  0  0  0  0  0  0  0  0  0
   -3.1918   15.2578    1.7798 H   0  0  0  0  0  0  0  0  0  0  0  0
    0.8038   14.3904    1.3184 H   0  0  0  0  0  0  0  0  0  0  0  0
   -4.5372   14.1996   -0.6168 H   0  0  0  0  0  0  0  0  0  0  0  0
   -4.4310   15.9624   -0.4707 H   0  0  0  0  0  0  0  0  0  0  0  0
   -1.1214   15.4074   -2.9429 H   0  0  0  0  0  0  0  0  0  0  0  0
   -0.9212   13.6476   -2.8503 H   0  0  0  0  0  0  0  0  0  0  0  0
   -4.8914   15.0472   -2.8077 H   0  0  0  0  0  0  0  0  0  0  0  0
   -3.6097   16.2568   -2.6826 H   0  0  0  0  0  0  0  0  0  0  0  0
   -1.6293   12.0620   -3.9319 H   0  0  0  0  0  0  0  0  0  0  0  0
   -2.9788   12.3688   -5.0053 H   0  0  0  0  0  0  0  0  0  0  0  0
   -4.4427   12.8578   -2.9910 H   0  0  0  0  0  0  0  0  0  0  0  0
   -3.0532   12.5313   -1.9402 H   0  0  0  0  0  0  0  0  0  0  0  0
   -4.2228   10.4232   -3.9809 H   0  0  0  0  0  0  0  0  0  0  0  0
   -2.8175   10.1153   -2.9291 H   0  0  0  0  0  0  0  0  0  0  0  0
   -2.8037    8.8765   -4.8315 H   0  0  0  0  0  0  0  0  0  0  0  0
  1  3  1  0  0  0  0
  1 11  2  0  0  0  0
  2 11  1  0  0  0  0
  2 12  2  0  0  0  0
  3  4  2  0  0  0  0
  3  5  1  0  0  0  0
  4  6  1  0  0  0  0
  4 12  1  0  0  0  0
  5  7  1  0  0  0  0
  6 13  1  0  0  0  0
  7 13  1  0  0  0  0
  8  9  1  0  0  0  0
  8 10  1  0  0  0  0
  9 13  1  0  0  0  0
 10 14  1  0  0  0  0
  1 15  1  0  0  0  0
  2 16  1  0  0  0  0
  5 17  1  0  0  0  0
  5 18  1  0  0  0  0
  6 19  1  0  0  0  0
  6 20  1  0  0  0  0
  7 21  1  0  0  0  0
  7 22  1  0  0  0  0
  8 23  1  0  0  0  0
  8 24  1  0  0  0  0
  9 25  1  0  0  0  0
  9 26  1  0  0  0  0
 10 27  1  0  0  0  0
 10 28  1  0  0  0  0
 14 29  1  0  0  0  0
M  END
> <HYBRID receptor title>
5S18(A) > WOY(A-201)

> <HYBRID receptor filename>
data/docking/5s18.oedu

> <HYBRID Chemgauss4 score>
-6.515416

> <HYBRID receptor title>
5S18(A) > WOY(A-201)

> <HYBRID receptor filename>
data/docking/5s18.oedu

> <Dock Type>
Hybrid

$$$$
MOL0135
  -OEChem-07032400353D

 25 26  0     0  0  0  0  0  0999 V2000
   -2.6952   15.2092    1.3881 C   0  0  0  0  0  0  0  0  0  0  0  0
   -0.4864   14.7901    1.0963 C   0  0  0  0  0  0  0  0  0  0  0  0
   -2.9330   15.0870    0.0284 C   0  0  0  0  0  0  0  0  0  0  0  0
   -1.8213   14.8233   -0.7675 C   0  0  0  0  0  0  0  0  0  0  0  0
   -4.2968   15.2840   -0.5550 C   0  0  0  0  0  0  0  0  0  0  0  0
   -4.4023   14.6776   -1.9518 C   0  0  0  0  0  0  0  0  0  0  0  0
   -1.9718   14.6615   -2.2784 C   0  0  0  0  0  0  0  0  0  0  0  0
   -0.9086   15.5143   -3.0020 C   0  0  0  0  0  0  0  0  0  0  0  0
   -1.7575   13.1847   -2.6611 C   0  0  0  0  0  0  0  0  0  0  0  0
   -1.4822   15.0634    1.9561 N   0  0  0  0  0  0  0  0  0  0  0  0
   -0.5835   14.6579   -0.2401 N   0  0  0  0  0  0  0  0  0  0  0  0
   -3.2863   15.1153   -2.7910 N   0  0  0  0  0  0  0  0  0  0  0  0
   -3.4994   15.4355    2.0813 H   0  0  0  0  0  0  0  0  0  0  0  0
    0.5008   14.6621    1.5231 H   0  0  0  0  0  0  0  0  0  0  0  0
   -5.0308   14.8158    0.1114 H   0  0  0  0  0  0  0  0  0  0  0  0
   -4.5305   16.3528   -0.6136 H   0  0  0  0  0  0  0  0  0  0  0  0
   -4.3862   13.5830   -1.8763 H   0  0  0  0  0  0  0  0  0  0  0  0
   -5.3620   14.9348   -2.4183 H   0  0  0  0  0  0  0  0  0  0  0  0
   -1.0235   15.3930   -4.0733 H   0  0  0  0  0  0  0  0  0  0  0  0
    0.0789   15.1845   -2.6991 H   0  0  0  0  0  0  0  0  0  0  0  0
   -1.0451   16.5569   -2.7342 H   0  0  0  0  0  0  0  0  0  0  0  0
   -1.8658   13.0782   -3.7337 H   0  0  0  0  0  0  0  0  0  0  0  0
   -2.4970   12.5772   -2.1534 H   0  0  0  0  0  0  0  0  0  0  0  0
   -0.7613   12.8818   -2.3591 H   0  0  0  0  0  0  0  0  0  0  0  0
   -3.4265   14.7507   -3.7311 H   0  0  0  0  0  0  0  0  0  0  0  0
  1  3  1  0  0  0  0
  1 10  2  0  0  0  0
  2 10  1  0  0  0  0
  2 11  2  0  0  0  0
  3  4  2  0  0  0  0
  3  5  1  0  0  0  0
  4  7  1  0  0  0  0
  4 11  1  0  0  0  0
  5  6  1  0  0  0  0
  6 12  1  0  0  0  0
  7  8  1  0  0  0  0
  7  9  1  0  0  0  0
  7 12  1  0  0  0  0
  1 13  1  0  0  0  0
  2 14  1  0  0  0  0
  5 15  1  0  0  0  0
  5 16  1  0  0  0  0
  6 17  1  0  0  0  0
  6 18  1  0  0  0  0
  8 19  1  0  0  0  0
  8 20  1  0  0  0  0
  8 21  1  0  0  0  0
  9 22  1  0  0  0  0
  9 23  1  0  0  0  0
  9 24  1  0  0  0  0
 12 25  1  0  0  0  0
M  END
> <HYBRID receptor title>
5S18(A) > WOY(A-201)

> <HYBRID receptor filename>
data/docking/5s18.oedu

> <HYBRID Chemgauss4 score>
-6.503551

> <HYBRID receptor title>
5S18(A) > WOY(A-201)

> <HYBRID receptor filename>
data/docking/5s18.oedu

> <Dock Type>
Hybrid

$$$$
MOL0016
  -OEChem-07032400353D

 22 23  0     0  0  0  0  0  0999 V2000
   -1.3653   14.8241   -0.8014 C   0  0  0  0  0  0  0  0  0  0  0  0
   -0.1025   14.9872    1.0951 C   0  0  0  0  0  0  0  0  0  0  0  0
   -2.5051   14.8740   -0.0383 C   0  0  0  0  0  0  0  0  0  0  0  0
   -2.3527   14.9869    1.3355 C   0  0  0  0  0  0  0  0  0  0  0  0
   -4.6219   14.7115    0.9882 C   0  0  0  0  0  0  0  0  0  0  0  0
   -3.9574   14.8562   -0.4168 C   0  0  0  0  0  0  0  0  0  0  0  0
   -4.3121   13.6750   -1.3228 C   0  0  0  0  0  0  0  0  0  0  0  0
   -4.3569   16.1799   -1.0801 C   0  0  0  0  0  0  0  0  0  0  0  0
   -0.1343   14.8767   -0.2532 N   0  0  0  0  0  0  0  0  0  0  0  0
   -1.1543   15.0488    1.9396 N   0  0  0  0  0  0  0  0  0  0  0  0
   -3.6000   15.0326    1.9720 N   0  0  0  0  0  0  0  0  0  0  0  0
   -1.3964   14.7449   -1.8814 H   0  0  0  0  0  0  0  0  0  0  0  0
    0.8806   15.0317    1.5486 H   0  0  0  0  0  0  0  0  0  0  0  0
   -5.4916   15.3670    1.1065 H   0  0  0  0  0  0  0  0  0  0  0  0
   -4.9598   13.6823    1.1621 H   0  0  0  0  0  0  0  0  0  0  0  0
   -5.3712   13.7067   -1.5679 H   0  0  0  0  0  0  0  0  0  0  0  0
   -4.0897   12.7415   -0.8110 H   0  0  0  0  0  0  0  0  0  0  0  0
   -3.7293   13.7289   -2.2404 H   0  0  0  0  0  0  0  0  0  0  0  0
   -5.4096   16.1489   -1.3469 H   0  0  0  0  0  0  0  0  0  0  0  0
   -3.7610   16.3312   -1.9760 H   0  0  0  0  0  0  0  0  0  0  0  0
   -4.1833   17.0001   -0.3878 H   0  0  0  0  0  0  0  0  0  0  0  0
   -3.7261   15.0478    2.9721 H   0  0  0  0  0  0  0  0  0  0  0  0
  1  3  1  0  0  0  0
  1  9  2  0  0  0  0
  2  9  1  0  0  0  0
  2 10  2  0  0  0  0
  3  4  2  0  0  0  0
  3  6  1  0  0  0  0
  4 10  1  0  0  0  0
  4 11  1  0  0  0  0
  5  6  1  0  0  0  0
  5 11  1  0  0  0  0
  6  7  1  0  0  0  0
  6  8  1  0  0  0  0
  1 12  1  0  0  0  0
  2 13  1  0  0  0  0
  5 14  1  0  0  0  0
  5 15  1  0  0  0  0
  7 16  1  0  0  0  0
  7 17  1  0  0  0  0
  7 18  1  0  0  0  0
  8 19  1  0  0  0  0
  8 20  1  0  0  0  0
  8 21  1  0  0  0  0
 11 22  1  0  0  0  0
M  END
> <HYBRID receptor title>
5S18(A) > WOY(A-201)

> <HYBRID receptor filename>
data/docking/5s18.oedu

> <HYBRID Chemgauss4 score>
-6.476536

> <HYBRID receptor title>
5S18(A) > WOY(A-201)

> <HYBRID receptor filename>
data/docking/5s18.oedu

> <Dock Type>
Hybrid

$$$$
MOL0018
  -OEChem-07032400353D

 19 20  0     0  0  0  0  0  0999 V2000
   -0.0395   15.0917    1.1253 C   0  0  0  0  0  0  0  0  0  0  0  0
   -2.2794   14.5510   -0.1913 C   0  0  0  0  0  0  0  0  0  0  0  0
   -1.0666   14.4893   -0.8253 C   0  0  0  0  0  0  0  0  0  0  0  0
   -2.2944   14.9073    1.1467 C   0  0  0  0  0  0  0  0  0  0  0  0
   -3.6585   14.3238   -0.6996 C   0  0  0  0  0  0  0  0  0  0  0  0
   -4.4892   14.4244    0.5986 C   0  0  0  0  0  0  0  0  0  0  0  0
   -0.9713   14.1251   -2.2660 C   0  0  0  0  0  0  0  0  0  0  0  0
    0.0878   14.7558   -0.1807 N   0  0  0  0  0  0  0  0  0  0  0  0
   -1.1800   15.1880    1.8420 N   0  0  0  0  0  0  0  0  0  0  0  0
   -3.6064   14.9321    1.6351 N   0  0  0  0  0  0  0  0  0  0  0  0
    0.8808   15.3086    1.6546 H   0  0  0  0  0  0  0  0  0  0  0  0
   -3.9417   15.1099   -1.4067 H   0  0  0  0  0  0  0  0  0  0  0  0
   -3.7670   13.3387   -1.1625 H   0  0  0  0  0  0  0  0  0  0  0  0
   -5.3567   15.0784    0.4628 H   0  0  0  0  0  0  0  0  0  0  0  0
   -4.8590   13.4334    0.8870 H   0  0  0  0  0  0  0  0  0  0  0  0
   -1.0288   15.0139   -2.9093 H   0  0  0  0  0  0  0  0  0  0  0  0
   -1.7952   13.4632   -2.5672 H   0  0  0  0  0  0  0  0  0  0  0  0
   -0.0229   13.6113   -2.4705 H   0  0  0  0  0  0  0  0  0  0  0  0
   -3.8592   15.1203    2.5924 H   0  0  0  0  0  0  0  0  0  0  0  0
  1  8  2  0  0  0  0
  1  9  1  0  0  0  0
  2  3  2  0  0  0  0
  2  4  1  0  0  0  0
  2  5  1  0  0  0  0
  3  7  1  0  0  0  0
  3  8  1  0  0  0  0
  4  9  2  0  0  0  0
  4 10  1  0  0  0  0
  5  6  1  0  0  0  0
  6 10  1  0  0  0  0
  1 11  1  0  0  0  0
  5 12  1  0  0  0  0
  5 13  1  0  0  0  0
  6 14  1  0  0  0  0
  6 15  1  0  0  0  0
  7 16  1  0  0  0  0
  7 17  1  0  0  0  0
  7 18  1  0  0  0  0
 10 19  1  0  0  0  0
M  END
> <HYBRID receptor title>
5S18(A) > WOY(A-201)

> <HYBRID receptor filename>
data/docking/5s18.oedu

> <HYBRID Chemgauss4 score>
-6.472425

> <HYBRID receptor title>
5S18(A) > WOY(A-201)

> <HYBRID receptor filename>
data/docking/5s18.oedu

> <Dock Type>
Hybrid

$$$$
MOL0003
  -OEChem-07032400353D

 16 17  0     0  0  0  0  0  0999 V2000
   -1.6463   14.7343   -0.9730 C   0  0  0  0  0  0  0  0  0  0  0  0
   -0.1699   14.7521    0.7713 C   0  0  0  0  0  0  0  0  0  0  0  0
   -2.6699   14.9668   -0.0928 C   0  0  0  0  0  0  0  0  0  0  0  0
   -2.3552   15.0898    1.2501 C   0  0  0  0  0  0  0  0  0  0  0  0
   -4.1283   15.1502   -0.3191 C   0  0  0  0  0  0  0  0  0  0  0  0
   -4.6615   15.2220    1.1286 C   0  0  0  0  0  0  0  0  0  0  0  0
   -0.3669   14.6175   -0.5620 N   0  0  0  0  0  0  0  0  0  0  0  0
   -1.1013   14.9875    1.7204 N   0  0  0  0  0  0  0  0  0  0  0  0
   -3.5084   15.3339    2.0057 N   0  0  0  0  0  0  0  0  0  0  0  0
   -1.8126   14.6347   -2.0387 H   0  0  0  0  0  0  0  0  0  0  0  0
    0.8537   14.6605    1.1148 H   0  0  0  0  0  0  0  0  0  0  0  0
   -4.3188   16.0858   -0.8542 H   0  0  0  0  0  0  0  0  0  0  0  0
   -4.5649   14.3067   -0.8615 H   0  0  0  0  0  0  0  0  0  0  0  0
   -5.3394   16.0721    1.2583 H   0  0  0  0  0  0  0  0  0  0  0  0
   -5.2179   14.3092    1.3718 H   0  0  0  0  0  0  0  0  0  0  0  0
   -3.5305   15.4148    3.0103 H   0  0  0  0  0  0  0  0  0  0  0  0
  1  3  1  0  0  0  0
  1  7  2  0  0  0  0
  2  7  1  0  0  0  0
  2  8  2  0  0  0  0
  3  4  2  0  0  0  0
  3  5  1  0  0  0  0
  4  8  1  0  0  0  0
  4  9  1  0  0  0  0
  5  6  1  0  0  0  0
  6  9  1  0  0  0  0
  1 10  1  0  0  0  0
  2 11  1  0  0  0  0
  5 12  1  0  0  0  0
  5 13  1  0  0  0  0
  6 14  1  0  0  0  0
  6 15  1  0  0  0  0
  9 16  1  0  0  0  0
M  END
> <HYBRID receptor title>
5S18(A) > WOY(A-201)

> <HYBRID receptor filename>
data/docking/5s18.oedu

> <HYBRID Chemgauss4 score>
-6.471065

> <HYBRID receptor title>
5S18(A) > WOY(A-201)

> <HYBRID receptor filename>
data/docking/5s18.oedu

> <Dock Type>
Hybrid

$$$$
MOL0017
  -OEChem-07032400353D

 21 22  0     0  0  0  0  0  0999 V2000
   -2.8076   15.1214    1.3324 C   0  0  0  0  0  0  0  0  0  0  0  0
   -0.5638   14.9856    0.9162 C   0  0  0  0  0  0  0  0  0  0  0  0
   -3.0632   14.8776    0.0072 C   0  0  0  0  0  0  0  0  0  0  0  0
   -1.9740   14.6931   -0.8217 C   0  0  0  0  0  0  0  0  0  0  0  0
   -1.5788   14.2307   -3.2116 C   0  0  0  0  0  0  0  0  0  0  0  0
   -4.3605   14.7747   -0.7127 C   0  0  0  0  0  0  0  0  0  0  0  0
   -3.8968   14.4910   -2.1486 C   0  0  0  0  0  0  0  0  0  0  0  0
   -2.2790   13.9993   -4.5280 C   0  0  0  0  0  0  0  0  0  0  0  0
   -1.5512   15.1817    1.8215 N   0  0  0  0  0  0  0  0  0  0  0  0
   -0.6987   14.7398   -0.4041 N   0  0  0  0  0  0  0  0  0  0  0  0
   -2.4207   14.4558   -2.1363 N   0  0  0  0  0  0  0  0  0  0  0  0
   -0.3484   14.2097   -3.1570 O   0  0  0  0  0  0  0  0  0  0  0  0
   -3.6022   15.2767    2.0526 H   0  0  0  0  0  0  0  0  0  0  0  0
    0.4500   15.0306    1.2960 H   0  0  0  0  0  0  0  0  0  0  0  0
   -4.9638   13.9501   -0.3215 H   0  0  0  0  0  0  0  0  0  0  0  0
   -4.9184   15.7138   -0.6551 H   0  0  0  0  0  0  0  0  0  0  0  0
   -4.2745   13.5286   -2.5114 H   0  0  0  0  0  0  0  0  0  0  0  0
   -4.2304   15.2712   -2.8416 H   0  0  0  0  0  0  0  0  0  0  0  0
   -2.4175   14.9523   -5.0274 H   0  0  0  0  0  0  0  0  0  0  0  0
   -3.2414   13.5347   -4.3415 H   0  0  0  0  0  0  0  0  0  0  0  0
   -1.6710   13.3430   -5.1417 H   0  0  0  0  0  0  0  0  0  0  0  0
  1  3  1  0  0  0  0
  1  9  2  0  0  0  0
  2  9  1  0  0  0  0
  2 10  2  0  0  0  0
  3  4  2  0  0  0  0
  3  6  1  0  0  0  0
  4 10  1  0  0  0  0
  4 11  1  0  0  0  0
  5  8  1  0  0  0  0
  5 11  1  0  0  0  0
  5 12  2  0  0  0  0
  6  7  1  0  0  0  0
  7 11  1  0  0  0  0
  1 13  1  0  0  0  0
  2 14  1  0  0  0  0
  6 15  1  0  0  0  0
  6 16  1  0  0  0  0
  7 17  1  0  0  0  0
  7 18  1  0  0  0  0
  8 19  1  0  0  0  0
  8 20  1  0  0  0  0
  8 21  1  0  0  0  0
M  END
> <HYBRID receptor title>
5S18(A) > WOY(A-201)

> <HYBRID receptor filename>
data/docking/5s18.oedu

> <HYBRID Chemgauss4 score>
-6.470561

> <HYBRID receptor title>
5S18(A) > WOY(A-201)

> <HYBRID receptor filename>
data/docking/5s18.oedu

> <Dock Type>
Hybrid

$$$$
MOL0117
  -OEChem-07032400353D

 22 23  0     1  0  0  0  0  0999 V2000
   -1.0512   14.6756   -1.0797 C   0  0  0  0  0  0  0  0  0  0  0  0
    0.1429   15.1287    0.8153 C   0  0  0  0  0  0  0  0  0  0  0  0
   -2.2081   14.6921   -0.3436 C   0  0  0  0  0  0  0  0  0  0  0  0
   -2.1020   14.9347    1.0176 C   0  0  0  0  0  0  0  0  0  0  0  0
   -4.3657   14.8734    0.5698 C   0  0  0  0  0  0  0  0  0  0  0  0
   -3.6300   14.4388   -0.7251 C   0  0  1  0  0  0  0  0  0  0  0  0
   -5.5681   14.9597   -2.2396 C   0  0  0  0  0  0  0  0  0  0  0  0
   -4.0982   15.2094   -1.9493 C   0  0  0  0  0  0  0  0  0  0  0  0
    0.1548   14.8993   -0.5187 N   0  0  0  0  0  0  0  0  0  0  0  0
   -0.9302   15.1582    1.6349 N   0  0  0  0  0  0  0  0  0  0  0  0
   -3.3663   14.9074    1.6247 N   0  0  0  0  0  0  0  0  0  0  0  0
   -1.0459   14.4772   -2.1446 H   0  0  0  0  0  0  0  0  0  0  0  0
    1.1059   15.3084    1.2784 H   0  0  0  0  0  0  0  0  0  0  0  0
   -4.8072   15.8717    0.4634 H   0  0  0  0  0  0  0  0  0  0  0  0
   -5.1726   14.1754    0.8167 H   0  0  0  0  0  0  0  0  0  0  0  0
   -3.7665   13.3615   -0.8805 H   0  0  0  0  0  0  0  0  0  0  0  0
   -6.1910   15.2488   -1.3868 H   0  0  0  0  0  0  0  0  0  0  0  0
   -5.7389   13.8979   -2.4415 H   0  0  0  0  0  0  0  0  0  0  0  0
   -5.8971   15.5297   -3.1142 H   0  0  0  0  0  0  0  0  0  0  0  0
   -3.4990   14.9124   -2.8163 H   0  0  0  0  0  0  0  0  0  0  0  0
   -3.9336   16.2804   -1.7894 H   0  0  0  0  0  0  0  0  0  0  0  0
   -3.5344   15.1291    2.5937 H   0  0  0  0  0  0  0  0  0  0  0  0
  1  3  1  0  0  0  0
  1  9  2  0  0  0  0
  2  9  1  0  0  0  0
  2 10  2  0  0  0  0
  3  4  2  0  0  0  0
  3  6  1  0  0  0  0
  4 10  1  0  0  0  0
  4 11  1  0  0  0  0
  5  6  1  0  0  0  0
  5 11  1  0  0  0  0
  6  8  1  0  0  0  0
  7  8  1  0  0  0  0
  1 12  1  0  0  0  0
  2 13  1  0  0  0  0
  5 14  1  0  0  0  0
  5 15  1  0  0  0  0
  6 16  1  0  0  0  0
  7 17  1  0  0  0  0
  7 18  1  0  0  0  0
  7 19  1  0  0  0  0
  8 20  1  0  0  0  0
  8 21  1  0  0  0  0
 11 22  1  0  0  0  0
M  END
> <HYBRID receptor title>
5S18(A) > WOY(A-201)

> <HYBRID receptor filename>
data/docking/5s18.oedu

> <HYBRID Chemgauss4 score>
-6.438844

> <HYBRID receptor title>
5S18(A) > WOY(A-201)

> <HYBRID receptor filename>
data/docking/5s18.oedu

> <Dock Type>
Hybrid

$$$$
MOL0110
  -OEChem-07032400353D

 31 33  0     1  0  0  0  0  0999 V2000
   -1.5165   10.4844   -6.3054 C   0  0  0  0  0  0  0  0  0  0  0  0
   -2.1524   10.9430   -5.1571 C   0  0  0  0  0  0  0  0  0  0  0  0
   -0.5072   11.2668   -6.8440 C   0  0  0  0  0  0  0  0  0  0  0  0
   -3.0217   15.2182    1.4640 C   0  0  0  0  0  0  0  0  0  0  0  0
   -0.7454   12.8599   -5.2052 C   0  0  0  0  0  0  0  0  0  0  0  0
   -0.8745   14.7851    0.8164 C   0  0  0  0  0  0  0  0  0  0  0  0
   -3.4307   15.0725    0.1637 C   0  0  0  0  0  0  0  0  0  0  0  0
   -1.7656   12.1522   -4.5903 C   0  0  0  0  0  0  0  0  0  0  0  0
   -2.4692   14.7826   -0.7912 C   0  0  0  0  0  0  0  0  0  0  0  0
   -4.7751   15.2096   -0.4521 C   0  0  0  0  0  0  0  0  0  0  0  0
   -4.5117   14.6698   -1.8709 C   0  0  0  0  0  0  0  0  0  0  0  0
   -2.4359   12.6768   -3.3446 C   0  0  0  0  0  0  0  0  0  0  0  0
   -2.4531   14.2013   -3.2734 C   0  0  0  0  0  0  0  0  0  0  0  0
   -0.1042   12.4467   -6.3213 N   0  0  0  0  0  0  0  0  0  0  0  0
   -1.7303   15.0740    1.8241 N   0  0  0  0  0  0  0  0  0  0  0  0
   -1.1673   14.6287   -0.4923 N   0  0  0  0  0  0  0  0  0  0  0  0
   -3.0625   14.6801   -2.0814 N   0  0  2  0  0  0  0  0  0  0  0  0
   -1.8012    9.5441   -6.7632 H   0  0  0  0  0  0  0  0  0  0  0  0
   -2.9471   10.3515   -4.7106 H   0  0  0  0  0  0  0  0  0  0  0  0
    0.0210   10.9534   -7.7384 H   0  0  0  0  0  0  0  0  0  0  0  0
   -3.7129   15.4568    2.2632 H   0  0  0  0  0  0  0  0  0  0  0  0
   -0.4009   13.8101   -4.8087 H   0  0  0  0  0  0  0  0  0  0  0  0
    0.1667   14.6671    1.0924 H   0  0  0  0  0  0  0  0  0  0  0  0
   -5.5304   14.6138    0.0678 H   0  0  0  0  0  0  0  0  0  0  0  0
   -5.0747   16.2621   -0.4809 H   0  0  0  0  0  0  0  0  0  0  0  0
   -4.8843   13.6401   -1.9480 H   0  0  0  0  0  0  0  0  0  0  0  0
   -5.0285   15.2687   -2.6283 H   0  0  0  0  0  0  0  0  0  0  0  0
   -3.4590   12.2844   -3.2803 H   0  0  0  0  0  0  0  0  0  0  0  0
   -1.9048   12.2794   -2.4703 H   0  0  0  0  0  0  0  0  0  0  0  0
   -1.4280   14.5861   -3.2815 H   0  0  0  0  0  0  0  0  0  0  0  0
   -2.9887   14.6433   -4.1198 H   0  0  0  0  0  0  0  0  0  0  0  0
  1  2  2  0  0  0  0
  1  3  1  0  0  0  0
  2  8  1  0  0  0  0
  3 14  2  0  0  0  0
  4  7  1  0  0  0  0
  4 15  2  0  0  0  0
  5  8  2  0  0  0  0
  5 14  1  0  0  0  0
  6 15  1  0  0  0  0
  6 16  2  0  0  0  0
  7  9  2  0  0  0  0
  7 10  1  0  0  0  0
  8 12  1  0  0  0  0
  9 16  1  0  0  0  0
  9 17  1  0  0  0  0
 10 11  1  0  0  0  0
 11 17  1  0  0  0  0
 12 13  1  0  0  0  0
 13 17  1  0  0  0  0
  1 18  1  0  0  0  0
  2 19  1  0  0  0  0
  3 20  1  0  0  0  0
  4 21  1  0  0  0  0
  5 22  1  0  0  0  0
  6 23  1  0  0  0  0
 10 24  1  0  0  0  0
 10 25  1  0  0  0  0
 11 26  1  0  0  0  0
 11 27  1  0  0  0  0
 12 28  1  0  0  0  0
 12 29  1  0  0  0  0
 13 30  1  0  0  0  0
 13 31  1  0  0  0  0
M  END
> <HYBRID receptor title>
5S18(A) > WOY(A-201)

> <HYBRID receptor filename>
data/docking/5s18.oedu

> <HYBRID Chemgauss4 score>
-6.437456

> <HYBRID receptor title>
5S18(A) > WOY(A-201)

> <HYBRID receptor filename>
data/docking/5s18.oedu

> <Dock Type>
Hybrid

$$$$
MOL0175
  -OEChem-07032400353D

 20 21  0     0  0  0  0  0  0999 V2000
   -0.3735   14.2351   -0.5525 C   0  0  0  0  0  0  0  0  0  0  0  0
   -0.2965   14.4870    0.8151 C   0  0  0  0  0  0  0  0  0  0  0  0
   -2.6552   14.8793   -0.4356 C   0  0  0  0  0  0  0  0  0  0  0  0
   -1.5901   14.4349   -1.1950 C   0  0  0  0  0  0  0  0  0  0  0  0
   -2.4953   15.1053    0.9284 C   0  0  0  0  0  0  0  0  0  0  0  0
   -4.0628   15.1504   -0.8489 C   0  0  0  0  0  0  0  0  0  0  0  0
   -4.6541   15.7723    0.4339 C   0  0  0  0  0  0  0  0  0  0  0  0
   -1.7271   14.1731   -2.6536 C   0  0  0  0  0  0  0  0  0  0  0  0
   -1.3316   14.9177    1.5779 N   0  0  0  0  0  0  0  0  0  0  0  0
   -3.6983   15.5393    1.5015 N   0  0  0  0  0  0  0  0  0  0  0  0
    0.5004   13.8882   -1.0945 H   0  0  0  0  0  0  0  0  0  0  0  0
    0.6363   14.3405    1.3506 H   0  0  0  0  0  0  0  0  0  0  0  0
   -4.1146   15.8513   -1.6873 H   0  0  0  0  0  0  0  0  0  0  0  0
   -4.5731   14.2158   -1.1030 H   0  0  0  0  0  0  0  0  0  0  0  0
   -4.7949   16.8513    0.2993 H   0  0  0  0  0  0  0  0  0  0  0  0
   -5.6293   15.3355    0.6728 H   0  0  0  0  0  0  0  0  0  0  0  0
   -2.0279   13.1343   -2.8493 H   0  0  0  0  0  0  0  0  0  0  0  0
   -0.7755   14.3303   -3.1809 H   0  0  0  0  0  0  0  0  0  0  0  0
   -2.4802   14.8392   -3.0953 H   0  0  0  0  0  0  0  0  0  0  0  0
   -3.8054   15.8134    2.4656 H   0  0  0  0  0  0  0  0  0  0  0  0
  1  2  2  0  0  0  0
  1  4  1  0  0  0  0
  2  9  1  0  0  0  0
  3  4  2  0  0  0  0
  3  5  1  0  0  0  0
  3  6  1  0  0  0  0
  4  8  1  0  0  0  0
  5  9  2  0  0  0  0
  5 10  1  0  0  0  0
  6  7  1  0  0  0  0
  7 10  1  0  0  0  0
  1 11  1  0  0  0  0
  2 12  1  0  0  0  0
  6 13  1  0  0  0  0
  6 14  1  0  0  0  0
  7 15  1  0  0  0  0
  7 16  1  0  0  0  0
  8 17  1  0  0  0  0
  8 18  1  0  0  0  0
  8 19  1  0  0  0  0
 10 20  1  0  0  0  0
M  END
> <HYBRID receptor title>
5S18(A) > WOY(A-201)

> <HYBRID receptor filename>
data/docking/5s18.oedu

> <HYBRID Chemgauss4 score>
-6.433961

> <HYBRID receptor title>
5S18(A) > WOY(A-201)

> <HYBRID receptor filename>
data/docking/5s18.oedu

> <Dock Type>
Hybrid

$$$$
MOL0196
  -OEChem-07032400353D

 18 19  0     0  0  0  0  0  0999 V2000
   -2.3271   14.5750   -2.1519 C   0  0  0  0  0  0  0  0  0  0  0  0
   -3.6474   14.6849   -2.5981 C   0  0  0  0  0  0  0  0  0  0  0  0
   -4.3726   15.0684   -0.3382 C   0  0  0  0  0  0  0  0  0  0  0  0
   -2.6758   15.0817    1.4386 C   0  0  0  0  0  0  0  0  0  0  0  0
   -0.4981   14.7395    0.9272 C   0  0  0  0  0  0  0  0  0  0  0  0
   -3.0422   14.9561    0.1020 C   0  0  0  0  0  0  0  0  0  0  0  0
   -1.9994   14.7068   -0.8049 C   0  0  0  0  0  0  0  0  0  0  0  0
   -4.6710   14.9324   -1.6900 C   0  0  0  0  0  0  0  0  0  0  0  0
   -1.4092   14.9777    1.8837 N   0  0  0  0  0  0  0  0  0  0  0  0
   -0.7235   14.5976   -0.3947 N   0  0  0  0  0  0  0  0  0  0  0  0
   -6.0030   15.0440   -2.1368 N   0  0  0  0  0  0  0  0  0  0  0  0
   -1.5442   14.3809   -2.8827 H   0  0  0  0  0  0  0  0  0  0  0  0
   -3.8617   14.5765   -3.6583 H   0  0  0  0  0  0  0  0  0  0  0  0
   -5.1691   15.2630    0.3774 H   0  0  0  0  0  0  0  0  0  0  0  0
   -3.4126   15.2745    2.2127 H   0  0  0  0  0  0  0  0  0  0  0  0
    0.5318   14.6506    1.2512 H   0  0  0  0  0  0  0  0  0  0  0  0
   -6.1946   14.9959   -3.1174 H   0  0  0  0  0  0  0  0  0  0  0  0
   -6.7209   15.2746   -1.4796 H   0  0  0  0  0  0  0  0  0  0  0  0
  1  2  2  0  0  0  0
  1  7  1  0  0  0  0
  2  8  1  0  0  0  0
  3  6  1  0  0  0  0
  3  8  2  0  0  0  0
  4  6  1  0  0  0  0
  4  9  2  0  0  0  0
  5  9  1  0  0  0  0
  5 10  2  0  0  0  0
  6  7  2  0  0  0  0
  7 10  1  0  0  0  0
  8 11  1  0  0  0  0
  1 12  1  0  0  0  0
  2 13  1  0  0  0  0
  3 14  1  0  0  0  0
  4 15  1  0  0  0  0
  5 16  1  0  0  0  0
 11 17  1  0  0  0  0
 11 18  1  0  0  0  0
M  END
> <HYBRID receptor title>
5S18(A) > WOY(A-201)

> <HYBRID receptor filename>
data/docking/5s18.oedu

> <HYBRID Chemgauss4 score>
-6.424180

> <HYBRID receptor title>
5S18(A) > WOY(A-201)

> <HYBRID receptor filename>
data/docking/5s18.oedu

> <Dock Type>
Hybrid

$$$$
MOL0032
  -OEChem-07032400353D

 19 20  0     1  0  0  0  0  0999 V2000
   -1.4240   14.4963   -0.7680 C   0  0  0  0  0  0  0  0  0  0  0  0
   -0.1041   14.7879    1.0745 C   0  0  0  0  0  0  0  0  0  0  0  0
   -2.5352   14.7178    0.0043 C   0  0  0  0  0  0  0  0  0  0  0  0
   -2.3418   14.9687    1.3544 C   0  0  0  0  0  0  0  0  0  0  0  0
   -4.5998   15.2696    0.9818 C   0  0  0  0  0  0  0  0  0  0  0  0
   -3.9923   14.6929   -0.3240 C   0  0  1  0  0  0  0  0  0  0  0  0
   -4.3727   15.5036   -1.5528 C   0  0  0  0  0  0  0  0  0  0  0  0
   -0.1781   14.5313   -0.2526 N   0  0  0  0  0  0  0  0  0  0  0  0
   -1.1275   15.0102    1.9273 N   0  0  0  0  0  0  0  0  0  0  0  0
   -3.5707   15.1618    2.0025 N   0  0  0  0  0  0  0  0  0  0  0  0
   -1.4897   14.2772   -1.8268 H   0  0  0  0  0  0  0  0  0  0  0  0
    0.8915   14.8171    1.5013 H   0  0  0  0  0  0  0  0  0  0  0  0
   -4.8763   16.3243    0.8629 H   0  0  0  0  0  0  0  0  0  0  0  0
   -5.5002   14.7187    1.2733 H   0  0  0  0  0  0  0  0  0  0  0  0
   -4.3082   13.6495   -0.4460 H   0  0  0  0  0  0  0  0  0  0  0  0
   -4.0583   16.5411   -1.4309 H   0  0  0  0  0  0  0  0  0  0  0  0
   -5.4534   15.4789   -1.6997 H   0  0  0  0  0  0  0  0  0  0  0  0
   -3.8883   15.0917   -2.4403 H   0  0  0  0  0  0  0  0  0  0  0  0
   -3.6651   15.4286    2.9702 H   0  0  0  0  0  0  0  0  0  0  0  0
  1  3  1  0  0  0  0
  1  8  2  0  0  0  0
  2  8  1  0  0  0  0
  2  9  2  0  0  0  0
  3  4  2  0  0  0  0
  3  6  1  0  0  0  0
  4  9  1  0  0  0  0
  4 10  1  0  0  0  0
  5  6  1  0  0  0  0
  5 10  1  0  0  0  0
  6  7  1  0  0  0  0
  1 11  1  0  0  0  0
  2 12  1  0  0  0  0
  5 13  1  0  0  0  0
  5 14  1  0  0  0  0
  6 15  1  0  0  0  0
  7 16  1  0  0  0  0
  7 17  1  0  0  0  0
  7 18  1  0  0  0  0
 10 19  1  0  0  0  0
M  END
> <HYBRID receptor title>
5S18(A) > WOY(A-201)

> <HYBRID receptor filename>
data/docking/5s18.oedu

> <HYBRID Chemgauss4 score>
-6.414630

> <HYBRID receptor title>
5S18(A) > WOY(A-201)

> <HYBRID receptor filename>
data/docking/5s18.oedu

> <Dock Type>
Hybrid

$$$$
MOL0070
  -OEChem-07032400353D

 18 19  0     0  0  0  0  0  0999 V2000
   -0.7081   14.7262   -1.0517 C   0  0  0  0  0  0  0  0  0  0  0  0
    0.0414   14.9217    1.0772 C   0  0  0  0  0  0  0  0  0  0  0  0
   -2.0245   14.8657   -0.6418 C   0  0  0  0  0  0  0  0  0  0  0  0
   -2.2269   15.0048    0.7339 C   0  0  0  0  0  0  0  0  0  0  0  0
   -4.3953   15.2236   -1.0659 C   0  0  0  0  0  0  0  0  0  0  0  0
   -4.6346   14.7357    0.3599 C   0  0  0  0  0  0  0  0  0  0  0  0
    0.3509   14.7523   -0.2182 N   0  0  0  0  0  0  0  0  0  0  0  0
   -1.1906   15.0508    1.6056 N   0  0  0  0  0  0  0  0  0  0  0  0
   -3.0802   14.8275   -1.5343 N   0  0  0  0  0  0  0  0  0  0  0  0
   -3.5270   15.1045    1.2214 N   0  0  0  0  0  0  0  0  0  0  0  0
   -0.4567   14.5915   -2.0995 H   0  0  0  0  0  0  0  0  0  0  0  0
    0.8705   14.9551    1.7734 H   0  0  0  0  0  0  0  0  0  0  0  0
   -5.1593   14.8142   -1.7352 H   0  0  0  0  0  0  0  0  0  0  0  0
   -4.4794   16.3164   -1.1068 H   0  0  0  0  0  0  0  0  0  0  0  0
   -5.5613   15.1662    0.7536 H   0  0  0  0  0  0  0  0  0  0  0  0
   -4.7535   13.6453    0.3689 H   0  0  0  0  0  0  0  0  0  0  0  0
   -2.8917   14.8029   -2.5291 H   0  0  0  0  0  0  0  0  0  0  0  0
   -3.6638   15.1858    2.2212 H   0  0  0  0  0  0  0  0  0  0  0  0
  1  3  1  0  0  0  0
  1  7  2  0  0  0  0
  2  7  1  0  0  0  0
  2  8  2  0  0  0  0
  3  4  2  0  0  0  0
  3  9  1  0  0  0  0
  4  8  1  0  0  0  0
  4 10  1  0  0  0  0
  5  6  1  0  0  0  0
  5  9  1  0  0  0  0
  6 10  1  0  0  0  0
  1 11  1  0  0  0  0
  2 12  1  0  0  0  0
  5 13  1  0  0  0  0
  5 14  1  0  0  0  0
  6 15  1  0  0  0  0
  6 16  1  0  0  0  0
  9 17  1  0  0  0  0
 10 18  1  0  0  0  0
M  END
> <HYBRID receptor title>
5S18(A) > WOY(A-201)

> <HYBRID receptor filename>
data/docking/5s18.oedu

> <HYBRID Chemgauss4 score>
-6.414003

> <HYBRID receptor title>
5S18(A) > WOY(A-201)

> <HYBRID receptor filename>
data/docking/5s18.oedu

> <Dock Type>
Hybrid

$$$$
MOL0067
  -OEChem-07032400353D

 24 25  0     0  0  0  0  0  0999 V2000
   -0.5751   14.5917   -0.8061 C   0  0  0  0  0  0  0  0  0  0  0  0
    0.2316   14.8560    1.2936 C   0  0  0  0  0  0  0  0  0  0  0  0
   -1.8709   14.8425   -0.3827 C   0  0  0  0  0  0  0  0  0  0  0  0
   -2.0325   15.0738    0.9847 C   0  0  0  0  0  0  0  0  0  0  0  0
   -4.4538   14.9000    0.6864 C   0  0  0  0  0  0  0  0  0  0  0  0
   -4.2612   15.2633   -0.8006 C   0  0  0  0  0  0  0  0  0  0  0  0
   -5.3211   14.5393   -1.6431 C   0  0  0  0  0  0  0  0  0  0  0  0
   -4.3913   16.7788   -1.0240 C   0  0  0  0  0  0  0  0  0  0  0  0
    0.5006   14.5928    0.0052 N   0  0  0  0  0  0  0  0  0  0  0  0
   -0.9774   15.0999    1.8338 N   0  0  0  0  0  0  0  0  0  0  0  0
   -2.9417   14.8298   -1.2569 N   0  0  0  0  0  0  0  0  0  0  0  0
   -3.3111   15.2992    1.4868 N   0  0  0  0  0  0  0  0  0  0  0  0
   -0.3573   14.3672   -1.8462 H   0  0  0  0  0  0  0  0  0  0  0  0
    1.0762   14.8767    1.9713 H   0  0  0  0  0  0  0  0  0  0  0  0
   -5.3477   15.3953    1.0878 H   0  0  0  0  0  0  0  0  0  0  0  0
   -4.6134   13.8216    0.8029 H   0  0  0  0  0  0  0  0  0  0  0  0
   -5.1849   14.7954   -2.6889 H   0  0  0  0  0  0  0  0  0  0  0  0
   -6.3097   14.8469   -1.3181 H   0  0  0  0  0  0  0  0  0  0  0  0
   -5.2122   13.4666   -1.5134 H   0  0  0  0  0  0  0  0  0  0  0  0
   -4.2512   17.0018   -2.0774 H   0  0  0  0  0  0  0  0  0  0  0  0
   -3.6362   17.2960   -0.4397 H   0  0  0  0  0  0  0  0  0  0  0  0
   -5.3792   17.1067   -0.7118 H   0  0  0  0  0  0  0  0  0  0  0  0
   -2.8650   14.2955   -2.1148 H   0  0  0  0  0  0  0  0  0  0  0  0
   -3.4236   15.9829    2.2252 H   0  0  0  0  0  0  0  0  0  0  0  0
  1  3  1  0  0  0  0
  1  9  2  0  0  0  0
  2  9  1  0  0  0  0
  2 10  2  0  0  0  0
  3  4  2  0  0  0  0
  3 11  1  0  0  0  0
  4 10  1  0  0  0  0
  4 12  1  0  0  0  0
  5  6  1  0  0  0  0
  5 12  1  0  0  0  0
  6  7  1  0  0  0  0
  6  8  1  0  0  0  0
  6 11  1  0  0  0  0
  1 13  1  0  0  0  0
  2 14  1  0  0  0  0
  5 15  1  0  0  0  0
  5 16  1  0  0  0  0
  7 17  1  0  0  0  0
  7 18  1  0  0  0  0
  7 19  1  0  0  0  0
  8 20  1  0  0  0  0
  8 21  1  0  0  0  0
  8 22  1  0  0  0  0
 11 23  1  0  0  0  0
 12 24  1  0  0  0  0
M  END
> <HYBRID receptor title>
5S18(A) > WOY(A-201)

> <HYBRID receptor filename>
data/docking/5s18.oedu

> <HYBRID Chemgauss4 score>
-6.411554

> <HYBRID receptor title>
5S18(A) > WOY(A-201)

> <HYBRID receptor filename>
data/docking/5s18.oedu

> <Dock Type>
Hybrid

$$$$
MOL0104
  -OEChem-07032400353D

 18 19  0     0  0  0  0  0  0999 V2000
   -1.3798   14.2867   -2.2733 C   0  0  0  0  0  0  0  0  0  0  0  0
   -2.6349   14.2289   -2.8864 C   0  0  0  0  0  0  0  0  0  0  0  0
   -3.6770   14.7797   -0.7910 C   0  0  0  0  0  0  0  0  0  0  0  0
   -2.2335   15.1333    1.1654 C   0  0  0  0  0  0  0  0  0  0  0  0
    0.0122   14.9385    0.9656 C   0  0  0  0  0  0  0  0  0  0  0  0
   -2.4111   14.8355   -0.1822 C   0  0  0  0  0  0  0  0  0  0  0  0
   -1.2424   14.5882   -0.9207 C   0  0  0  0  0  0  0  0  0  0  0  0
   -3.7845   14.4763   -2.1442 C   0  0  0  0  0  0  0  0  0  0  0  0
   -1.0319   15.1920    1.7703 N   0  0  0  0  0  0  0  0  0  0  0  0
   -0.0266   14.6389   -0.3485 N   0  0  0  0  0  0  0  0  0  0  0  0
   -5.0600   14.4172   -2.7642 N   0  3  0  0  0  0  0  0  0  0  0  0
   -5.1304   14.1395   -3.9858 O   0  5  0  0  0  0  0  0  0  0  0  0
   -6.0833   14.6442   -2.0736 O   0  0  0  0  0  0  0  0  0  0  0  0
   -0.4947   14.0893   -2.8752 H   0  0  0  0  0  0  0  0  0  0  0  0
   -2.6971   13.9890   -3.9452 H   0  0  0  0  0  0  0  0  0  0  0  0
   -4.5719   14.9740   -0.2026 H   0  0  0  0  0  0  0  0  0  0  0  0
   -3.0778   15.3391    1.8172 H   0  0  0  0  0  0  0  0  0  0  0  0
    0.9946   14.9780    1.4206 H   0  0  0  0  0  0  0  0  0  0  0  0
  1  2  2  0  0  0  0
  1  7  1  0  0  0  0
  2  8  1  0  0  0  0
  3  6  1  0  0  0  0
  3  8  2  0  0  0  0
  4  6  1  0  0  0  0
  4  9  2  0  0  0  0
  5  9  1  0  0  0  0
  5 10  2  0  0  0  0
  6  7  2  0  0  0  0
  7 10  1  0  0  0  0
  8 11  1  0  0  0  0
 11 12  1  0  0  0  0
 11 13  2  0  0  0  0
  1 14  1  0  0  0  0
  2 15  1  0  0  0  0
  3 16  1  0  0  0  0
  4 17  1  0  0  0  0
  5 18  1  0  0  0  0
M  CHG  2  11   1  12  -1
M  END
> <HYBRID receptor title>
5S18(A) > WOY(A-201)

> <HYBRID receptor filename>
data/docking/5s18.oedu

> <HYBRID Chemgauss4 score>
-6.406720

> <HYBRID receptor title>
5S18(A) > WOY(A-201)

> <HYBRID receptor filename>
data/docking/5s18.oedu

> <Dock Type>
Hybrid

$$$$
MOL0197
  -OEChem-07032400353D

 26 28  0     0  0  0  0  0  0999 V2000
   -0.4681   13.5468   -3.1966 C   0  0  0  0  0  0  0  0  0  0  0  0
   -2.6665   12.8409   -3.9083 C   0  0  0  0  0  0  0  0  0  0  0  0
    0.0894   12.9470   -4.3259 C   0  0  0  0  0  0  0  0  0  0  0  0
   -2.1091   12.2412   -5.0375 C   0  0  0  0  0  0  0  0  0  0  0  0
   -2.4885   15.2212    1.5663 C   0  0  0  0  0  0  0  0  0  0  0  0
   -0.4153   14.3507    1.2014 C   0  0  0  0  0  0  0  0  0  0  0  0
   -2.8273   14.9311    0.2682 C   0  0  0  0  0  0  0  0  0  0  0  0
   -1.8462   13.4937   -2.9880 C   0  0  0  0  0  0  0  0  0  0  0  0
   -0.7309   12.2942   -5.2462 C   0  0  0  0  0  0  0  0  0  0  0  0
   -1.8823   14.3184   -0.5401 C   0  0  0  0  0  0  0  0  0  0  0  0
   -4.1095   15.1363   -0.4446 C   0  0  0  0  0  0  0  0  0  0  0  0
   -3.7182   14.7715   -1.8862 C   0  0  0  0  0  0  0  0  0  0  0  0
   -1.2696   14.9400    2.0657 N   0  0  0  0  0  0  0  0  0  0  0  0
   -0.6510   14.0185   -0.0875 N   0  0  0  0  0  0  0  0  0  0  0  0
   -2.4061   14.0960   -1.8551 N   0  0  0  0  0  0  0  0  0  0  0  0
   -0.1950   11.7183   -6.3303 F   0  0  0  0  0  0  0  0  0  0  0  0
    0.1804   14.0533   -2.4863 H   0  0  0  0  0  0  0  0  0  0  0  0
   -3.7417   12.7941   -3.7557 H   0  0  0  0  0  0  0  0  0  0  0  0
    1.1620   12.9880   -4.4890 H   0  0  0  0  0  0  0  0  0  0  0  0
   -2.7476   11.7328   -5.7544 H   0  0  0  0  0  0  0  0  0  0  0  0
   -3.1849   15.6882    2.2524 H   0  0  0  0  0  0  0  0  0  0  0  0
    0.5710   14.1173    1.5845 H   0  0  0  0  0  0  0  0  0  0  0  0
   -4.8741   14.4538   -0.0602 H   0  0  0  0  0  0  0  0  0  0  0  0
   -4.4569   16.1710   -0.3757 H   0  0  0  0  0  0  0  0  0  0  0  0
   -4.4810   14.1335   -2.3483 H   0  0  0  0  0  0  0  0  0  0  0  0
   -3.6425   15.6862   -2.4892 H   0  0  0  0  0  0  0  0  0  0  0  0
  1  3  2  0  0  0  0
  1  8  1  0  0  0  0
  2  4  1  0  0  0  0
  2  8  2  0  0  0  0
  3  9  1  0  0  0  0
  4  9  2  0  0  0  0
  5  7  1  0  0  0  0
  5 13  2  0  0  0  0
  6 13  1  0  0  0  0
  6 14  2  0  0  0  0
  7 10  2  0  0  0  0
  7 11  1  0  0  0  0
  8 15  1  0  0  0  0
  9 16  1  0  0  0  0
 10 14  1  0  0  0  0
 10 15  1  0  0  0  0
 11 12  1  0  0  0  0
 12 15  1  0  0  0  0
  1 17  1  0  0  0  0
  2 18  1  0  0  0  0
  3 19  1  0  0  0  0
  4 20  1  0  0  0  0
  5 21  1  0  0  0  0
  6 22  1  0  0  0  0
 11 23  1  0  0  0  0
 11 24  1  0  0  0  0
 12 25  1  0  0  0  0
 12 26  1  0  0  0  0
M  END
> <HYBRID receptor title>
5S18(A) > WOY(A-201)

> <HYBRID receptor filename>
data/docking/5s18.oedu

> <HYBRID Chemgauss4 score>
-6.385529

> <HYBRID receptor title>
5S18(A) > WOY(A-201)

> <HYBRID receptor filename>
data/docking/5s18.oedu

> <Dock Type>
Hybrid

$$$$
MOL0078
  -OEChem-07032400353D

 20 21  0     0  0  0  0  0  0999 V2000
   -0.1022   14.3690   -0.4991 C   0  0  0  0  0  0  0  0  0  0  0  0
   -1.3509   14.4476   -1.0991 C   0  0  0  0  0  0  0  0  0  0  0  0
   -0.0259   14.6313    0.8543 C   0  0  0  0  0  0  0  0  0  0  0  0
   -2.4751   14.7745   -0.3341 C   0  0  0  0  0  0  0  0  0  0  0  0
   -2.3063   15.0442    1.0322 C   0  0  0  0  0  0  0  0  0  0  0  0
   -3.8285   14.8806   -0.9860 C   0  0  0  0  0  0  0  0  0  0  0  0
   -4.9534   14.7645    0.0403 C   0  0  0  0  0  0  0  0  0  0  0  0
   -4.6876   15.6839    1.2274 C   0  0  0  0  0  0  0  0  0  0  0  0
   -1.0868   14.9624    1.6246 N   0  0  0  0  0  0  0  0  0  0  0  0
   -3.3989   15.3849    1.8193 N   0  0  0  0  0  0  0  0  0  0  0  0
    0.7804   14.1121   -1.0730 H   0  0  0  0  0  0  0  0  0  0  0  0
   -1.4472   14.2508   -2.1635 H   0  0  0  0  0  0  0  0  0  0  0  0
    0.9240   14.5830    1.3767 H   0  0  0  0  0  0  0  0  0  0  0  0
   -3.8921   15.8485   -1.4981 H   0  0  0  0  0  0  0  0  0  0  0  0
   -3.9502   14.0932   -1.7390 H   0  0  0  0  0  0  0  0  0  0  0  0
   -5.9111   15.0186   -0.4275 H   0  0  0  0  0  0  0  0  0  0  0  0
   -5.0346   13.7276    0.3919 H   0  0  0  0  0  0  0  0  0  0  0  0
   -4.7058   16.7318    0.9056 H   0  0  0  0  0  0  0  0  0  0  0  0
   -5.4717   15.5596    1.9817 H   0  0  0  0  0  0  0  0  0  0  0  0
   -3.2375   15.5861    2.7986 H   0  0  0  0  0  0  0  0  0  0  0  0
  1  2  2  0  0  0  0
  1  3  1  0  0  0  0
  2  4  1  0  0  0  0
  3  9  2  0  0  0  0
  4  5  2  0  0  0  0
  4  6  1  0  0  0  0
  5  9  1  0  0  0  0
  5 10  1  0  0  0  0
  6  7  1  0  0  0  0
  7  8  1  0  0  0  0
  8 10  1  0  0  0  0
  1 11  1  0  0  0  0
  2 12  1  0  0  0  0
  3 13  1  0  0  0  0
  6 14  1  0  0  0  0
  6 15  1  0  0  0  0
  7 16  1  0  0  0  0
  7 17  1  0  0  0  0
  8 18  1  0  0  0  0
  8 19  1  0  0  0  0
 10 20  1  0  0  0  0
M  END
> <HYBRID receptor title>
5S18(A) > WOY(A-201)

> <HYBRID receptor filename>
data/docking/5s18.oedu

> <HYBRID Chemgauss4 score>
-6.353313

> <HYBRID receptor title>
5S18(A) > WOY(A-201)

> <HYBRID receptor filename>
data/docking/5s18.oedu

> <Dock Type>
Hybrid

$$$$
MOL0052
  -OEChem-07032400353D

 19 20  0     0  0  0  0  0  0999 V2000
   -3.0282   14.4750   -1.1439 C   0  0  0  0  0  0  0  0  0  0  0  0
   -3.9738   14.5354   -0.1546 C   0  0  0  0  0  0  0  0  0  0  0  0
   -3.5487   14.8180    1.1326 C   0  0  0  0  0  0  0  0  0  0  0  0
   -1.4109   14.9406    0.4021 C   0  0  0  0  0  0  0  0  0  0  0  0
   -5.4514   14.3749   -0.2066 C   0  0  0  0  0  0  0  0  0  0  0  0
   -5.8231   14.4271    1.2917 C   0  0  0  0  0  0  0  0  0  0  0  0
    0.0329   15.1643    0.7031 C   0  0  0  0  0  0  0  0  0  0  0  0
   -1.7185   14.6735   -0.8897 N   0  0  0  0  0  0  0  0  0  0  0  0
   -2.2604   15.0290    1.4481 N   0  0  0  0  0  0  0  0  0  0  0  0
   -4.6361   14.8524    2.0139 N   0  0  0  0  0  0  0  0  0  0  0  0
    0.8441   15.0643   -0.3910 F   0  0  0  0  0  0  0  0  0  0  0  0
    0.5254   14.2681    1.6070 F   0  0  0  0  0  0  0  0  0  0  0  0
    0.2940   16.3973    1.2296 F   0  0  0  0  0  0  0  0  0  0  0  0
   -3.2843   14.2675   -2.1757 H   0  0  0  0  0  0  0  0  0  0  0  0
   -5.9083   15.2056   -0.7535 H   0  0  0  0  0  0  0  0  0  0  0  0
   -5.7408   13.4201   -0.6547 H   0  0  0  0  0  0  0  0  0  0  0  0
   -6.6584   15.1128    1.4679 H   0  0  0  0  0  0  0  0  0  0  0  0
   -6.1266   13.4328    1.6399 H   0  0  0  0  0  0  0  0  0  0  0  0
   -4.5643   14.9953    3.0091 H   0  0  0  0  0  0  0  0  0  0  0  0
  1  2  1  0  0  0  0
  1  8  2  0  0  0  0
  2  3  2  0  0  0  0
  2  5  1  0  0  0  0
  3  9  1  0  0  0  0
  3 10  1  0  0  0  0
  4  7  1  0  0  0  0
  4  8  1  0  0  0  0
  4  9  2  0  0  0  0
  5  6  1  0  0  0  0
  6 10  1  0  0  0  0
  7 11  1  0  0  0  0
  7 12  1  0  0  0  0
  7 13  1  0  0  0  0
  1 14  1  0  0  0  0
  5 15  1  0  0  0  0
  5 16  1  0  0  0  0
  6 17  1  0  0  0  0
  6 18  1  0  0  0  0
 10 19  1  0  0  0  0
M  END
> <HYBRID receptor title>
5S18(A) > WOY(A-201)

> <HYBRID receptor filename>
data/docking/5s18.oedu

> <HYBRID Chemgauss4 score>
-6.338463

> <HYBRID receptor title>
5S18(A) > WOY(A-201)

> <HYBRID receptor filename>
data/docking/5s18.oedu

> <Dock Type>
Hybrid

$$$$
MOL0022
  -OEChem-07032400353D

 22 23  0     1  0  0  0  0  0999 V2000
   -2.8757   15.0732    1.2518 C   0  0  0  0  0  0  0  0  0  0  0  0
   -0.6711   14.8364    0.7732 C   0  0  0  0  0  0  0  0  0  0  0  0
   -3.2216   14.8290   -0.0670 C   0  0  0  0  0  0  0  0  0  0  0  0
   -2.1645   14.6150   -0.9477 C   0  0  0  0  0  0  0  0  0  0  0  0
   -4.6449   14.8529   -0.5332 C   0  0  0  0  0  0  0  0  0  0  0  0
   -4.8103   14.1894   -1.9003 C   0  0  0  0  0  0  0  0  0  0  0  0
   -2.4466   14.2985   -2.4057 C   0  0  2  0  0  0  0  0  0  0  0  0
   -1.4506   14.9877   -3.3424 C   0  0  0  0  0  0  0  0  0  0  0  0
   -1.6071   15.0825    1.7062 N   0  0  0  0  0  0  0  0  0  0  0  0
   -0.8750   14.5947   -0.5359 N   0  0  0  0  0  0  0  0  0  0  0  0
   -3.8016   14.6961   -2.8297 N   0  0  0  0  0  0  0  0  0  0  0  0
   -3.6321   15.2730    2.0042 H   0  0  0  0  0  0  0  0  0  0  0  0
    0.3585   14.8307    1.1096 H   0  0  0  0  0  0  0  0  0  0  0  0
   -5.2865   14.3389    0.1921 H   0  0  0  0  0  0  0  0  0  0  0  0
   -4.9725   15.8987   -0.5885 H   0  0  0  0  0  0  0  0  0  0  0  0
   -4.7350   13.0977   -1.8157 H   0  0  0  0  0  0  0  0  0  0  0  0
   -5.8100   14.4116   -2.2894 H   0  0  0  0  0  0  0  0  0  0  0  0
   -2.3442   13.2123   -2.5294 H   0  0  0  0  0  0  0  0  0  0  0  0
   -1.5353   16.0664   -3.2358 H   0  0  0  0  0  0  0  0  0  0  0  0
   -1.6648   14.7099   -4.3716 H   0  0  0  0  0  0  0  0  0  0  0  0
   -0.4380   14.6797   -3.0902 H   0  0  0  0  0  0  0  0  0  0  0  0
   -3.9831   14.3279   -3.7632 H   0  0  0  0  0  0  0  0  0  0  0  0
  1  3  1  0  0  0  0
  1  9  2  0  0  0  0
  2  9  1  0  0  0  0
  2 10  2  0  0  0  0
  3  4  2  0  0  0  0
  3  5  1  0  0  0  0
  4  7  1  0  0  0  0
  4 10  1  0  0  0  0
  5  6  1  0  0  0  0
  6 11  1  0  0  0  0
  7  8  1  0  0  0  0
  7 11  1  0  0  0  0
  1 12  1  0  0  0  0
  2 13  1  0  0  0  0
  5 14  1  0  0  0  0
  5 15  1  0  0  0  0
  6 16  1  0  0  0  0
  6 17  1  0  0  0  0
  7 18  1  0  0  0  0
  8 19  1  0  0  0  0
  8 20  1  0  0  0  0
  8 21  1  0  0  0  0
 11 22  1  0  0  0  0
M  END
> <HYBRID receptor title>
5S18(A) > WOY(A-201)

> <HYBRID receptor filename>
data/docking/5s18.oedu

> <HYBRID Chemgauss4 score>
-6.309983

> <HYBRID receptor title>
5S18(A) > WOY(A-201)

> <HYBRID receptor filename>
data/docking/5s18.oedu

> <Dock Type>
Hybrid

$$$$
MOL0129
  -OEChem-07032400353D

 19 20  0     0  0  0  0  0  0999 V2000
   -1.5160   14.5757   -1.0758 C   0  0  0  0  0  0  0  0  0  0  0  0
   -0.3312   14.3635   -0.3800 C   0  0  0  0  0  0  0  0  0  0  0  0
   -2.6379   14.9229   -0.3482 C   0  0  0  0  0  0  0  0  0  0  0  0
   -2.5639   15.0426    1.0365 C   0  0  0  0  0  0  0  0  0  0  0  0
   -0.3411   14.5061    1.0054 C   0  0  0  0  0  0  0  0  0  0  0  0
   -4.0289   15.1814   -0.8215 C   0  0  0  0  0  0  0  0  0  0  0  0
   -4.7142   15.6781    0.4690 C   0  0  0  0  0  0  0  0  0  0  0  0
   -1.4328   14.8403    1.7370 N   0  0  0  0  0  0  0  0  0  0  0  0
   -3.8125   15.3901    1.5697 N   0  0  0  0  0  0  0  0  0  0  0  0
    0.8843   14.2803    1.6823 N   0  0  0  0  0  0  0  0  0  0  0  0
   -1.5539   14.4692   -2.1541 H   0  0  0  0  0  0  0  0  0  0  0  0
    0.5725   14.0902   -0.9163 H   0  0  0  0  0  0  0  0  0  0  0  0
   -4.0570   15.9436   -1.6056 H   0  0  0  0  0  0  0  0  0  0  0  0
   -4.4880   14.2536   -1.1774 H   0  0  0  0  0  0  0  0  0  0  0  0
   -4.8857   16.7594    0.4118 H   0  0  0  0  0  0  0  0  0  0  0  0
   -5.6847   15.1927    0.6144 H   0  0  0  0  0  0  0  0  0  0  0  0
   -3.9844   15.5803    2.5447 H   0  0  0  0  0  0  0  0  0  0  0  0
    1.6752   13.9818    1.1555 H   0  0  0  0  0  0  0  0  0  0  0  0
    0.8976   14.3226    2.6774 H   0  0  0  0  0  0  0  0  0  0  0  0
  1  2  2  0  0  0  0
  1  3  1  0  0  0  0
  2  5  1  0  0  0  0
  3  4  2  0  0  0  0
  3  6  1  0  0  0  0
  4  8  1  0  0  0  0
  4  9  1  0  0  0  0
  5  8  2  0  0  0  0
  5 10  1  0  0  0  0
  6  7  1  0  0  0  0
  7  9  1  0  0  0  0
  1 11  1  0  0  0  0
  2 12  1  0  0  0  0
  6 13  1  0  0  0  0
  6 14  1  0  0  0  0
  7 15  1  0  0  0  0
  7 16  1  0  0  0  0
  9 17  1  0  0  0  0
 10 18  1  0  0  0  0
 10 19  1  0  0  0  0
M  END
> <HYBRID receptor title>
5S18(A) > WOY(A-201)

> <HYBRID receptor filename>
data/docking/5s18.oedu

> <HYBRID Chemgauss4 score>
-6.309307

> <HYBRID receptor title>
5S18(A) > WOY(A-201)

> <HYBRID receptor filename>
data/docking/5s18.oedu

> <Dock Type>
Hybrid

$$$$
MOL0079
  -OEChem-07032400353D

 19 20  0     0  0  0  0  0  0999 V2000
   -2.9386   14.9835    1.4259 C   0  0  0  0  0  0  0  0  0  0  0  0
   -0.7473   15.0226    0.8265 C   0  0  0  0  0  0  0  0  0  0  0  0
   -3.3191   14.8899    0.0994 C   0  0  0  0  0  0  0  0  0  0  0  0
   -2.3002   14.8608   -0.8430 C   0  0  0  0  0  0  0  0  0  0  0  0
   -4.7408   14.8257   -0.3003 C   0  0  0  0  0  0  0  0  0  0  0  0
   -2.6081   14.7850   -2.3120 C   0  0  0  0  0  0  0  0  0  0  0  0
   -5.0569   14.7168   -1.7766 C   0  0  0  0  0  0  0  0  0  0  0  0
   -3.9261   14.0592   -2.5568 C   0  0  0  0  0  0  0  0  0  0  0  0
   -1.6521   15.0502    1.8225 N   0  0  0  0  0  0  0  0  0  0  0  0
   -0.9956   14.9336   -0.4945 N   0  0  0  0  0  0  0  0  0  0  0  0
   -5.6277   14.9078    0.5446 O   0  0  0  0  0  0  0  0  0  0  0  0
   -3.6621   15.0096    2.2338 H   0  0  0  0  0  0  0  0  0  0  0  0
    0.2943   15.0781    1.1186 H   0  0  0  0  0  0  0  0  0  0  0  0
   -2.6567   15.8042   -2.7132 H   0  0  0  0  0  0  0  0  0  0  0  0
   -1.8006   14.2596   -2.8345 H   0  0  0  0  0  0  0  0  0  0  0  0
   -5.9664   14.1169   -1.8907 H   0  0  0  0  0  0  0  0  0  0  0  0
   -5.2569   15.7248   -2.1567 H   0  0  0  0  0  0  0  0  0  0  0  0
   -4.1602   14.0627   -3.6273 H   0  0  0  0  0  0  0  0  0  0  0  0
   -3.8318   13.0091   -2.2497 H   0  0  0  0  0  0  0  0  0  0  0  0
  1  3  1  0  0  0  0
  1  9  2  0  0  0  0
  2  9  1  0  0  0  0
  2 10  2  0  0  0  0
  3  4  2  0  0  0  0
  3  5  1  0  0  0  0
  4  6  1  0  0  0  0
  4 10  1  0  0  0  0
  5  7  1  0  0  0  0
  5 11  2  0  0  0  0
  6  8  1  0  0  0  0
  7  8  1  0  0  0  0
  1 12  1  0  0  0  0
  2 13  1  0  0  0  0
  6 14  1  0  0  0  0
  6 15  1  0  0  0  0
  7 16  1  0  0  0  0
  7 17  1  0  0  0  0
  8 18  1  0  0  0  0
  8 19  1  0  0  0  0
M  END
> <HYBRID receptor title>
5S18(A) > WOY(A-201)

> <HYBRID receptor filename>
data/docking/5s18.oedu

> <HYBRID Chemgauss4 score>
-6.291382

> <HYBRID receptor title>
5S18(A) > WOY(A-201)

> <HYBRID receptor filename>
data/docking/5s18.oedu

> <Dock Type>
Hybrid

$$$$
MOL0012
  -OEChem-07032400353D

 19 20  0     0  0  0  0  0  0999 V2000
   -2.4177   14.6521   -0.8797 C   0  0  0  0  0  0  0  0  0  0  0  0
   -3.5370   14.7194   -0.0928 C   0  0  0  0  0  0  0  0  0  0  0  0
   -3.3638   14.9336    1.2642 C   0  0  0  0  0  0  0  0  0  0  0  0
   -1.1208   14.9839    0.9725 C   0  0  0  0  0  0  0  0  0  0  0  0
   -4.9803   14.6298   -0.4400 C   0  0  0  0  0  0  0  0  0  0  0  0
   -5.6381   14.6431    0.9573 C   0  0  0  0  0  0  0  0  0  0  0  0
    0.2426   15.1289    1.5599 C   0  0  0  0  0  0  0  0  0  0  0  0
   -1.1774   14.7798   -0.3654 N   0  0  0  0  0  0  0  0  0  0  0  0
   -2.1560   15.0726    1.8350 N   0  0  0  0  0  0  0  0  0  0  0  0
   -4.6017   14.9855    1.9165 N   0  0  0  0  0  0  0  0  0  0  0  0
   -2.4729   14.4954   -1.9501 H   0  0  0  0  0  0  0  0  0  0  0  0
   -5.2882   15.5007   -1.0271 H   0  0  0  0  0  0  0  0  0  0  0  0
   -5.2119   13.7068   -0.9794 H   0  0  0  0  0  0  0  0  0  0  0  0
   -6.4650   15.3598    0.9979 H   0  0  0  0  0  0  0  0  0  0  0  0
   -6.0422   13.6517    1.1936 H   0  0  0  0  0  0  0  0  0  0  0  0
    0.5652   16.1782    1.5645 H   0  0  0  0  0  0  0  0  0  0  0  0
    0.9878   14.5696    0.9790 H   0  0  0  0  0  0  0  0  0  0  0  0
    0.2552   14.7567    2.5916 H   0  0  0  0  0  0  0  0  0  0  0  0
   -4.7223   15.0877    2.9119 H   0  0  0  0  0  0  0  0  0  0  0  0
  1  2  1  0  0  0  0
  1  8  2  0  0  0  0
  2  3  2  0  0  0  0
  2  5  1  0  0  0  0
  3  9  1  0  0  0  0
  3 10  1  0  0  0  0
  4  7  1  0  0  0  0
  4  8  1  0  0  0  0
  4  9  2  0  0  0  0
  5  6  1  0  0  0  0
  6 10  1  0  0  0  0
  1 11  1  0  0  0  0
  5 12  1  0  0  0  0
  5 13  1  0  0  0  0
  6 14  1  0  0  0  0
  6 15  1  0  0  0  0
  7 16  1  0  0  0  0
  7 17  1  0  0  0  0
  7 18  1  0  0  0  0
 10 19  1  0  0  0  0
M  END
> <HYBRID receptor title>
5S18(A) > WOY(A-201)

> <HYBRID receptor filename>
data/docking/5s18.oedu

> <HYBRID Chemgauss4 score>
-6.261935

> <HYBRID receptor title>
5S18(A) > WOY(A-201)

> <HYBRID receptor filename>
data/docking/5s18.oedu

> <Dock Type>
Hybrid

$$$$
MOL0077
  -OEChem-07032400353D

 35 37  0     1  0  0  0  0  0999 V2000
   -3.8101   12.3182   -7.3346 C   0  0  0  0  0  0  0  0  0  0  0  0
   -2.5128   11.8673   -7.0910 C   0  0  0  0  0  0  0  0  0  0  0  0
   -4.6864   12.5277   -6.2698 C   0  0  0  0  0  0  0  0  0  0  0  0
   -2.0917   11.6263   -5.7832 C   0  0  0  0  0  0  0  0  0  0  0  0
   -4.2653   12.2867   -4.9619 C   0  0  0  0  0  0  0  0  0  0  0  0
   -2.5213   15.1518    1.4867 C   0  0  0  0  0  0  0  0  0  0  0  0
   -0.2701   14.9676    1.2487 C   0  0  0  0  0  0  0  0  0  0  0  0
   -2.7191   14.8720    0.1451 C   0  0  0  0  0  0  0  0  0  0  0  0
   -2.9680   11.8358   -4.7184 C   0  0  0  0  0  0  0  0  0  0  0  0
   -1.5703   14.6233   -0.5981 C   0  0  0  0  0  0  0  0  0  0  0  0
   -4.0872   14.7677   -0.4567 C   0  0  0  0  0  0  0  0  0  0  0  0
   -1.6687   14.3494   -2.0792 C   0  0  0  0  0  0  0  0  0  0  0  0
   -4.0503   14.7408   -1.9899 C   0  0  0  0  0  0  0  0  0  0  0  0
   -2.5129   11.5752   -3.3037 C   0  0  0  0  0  0  0  0  0  0  0  0
   -3.2065   12.4696   -2.2798 C   0  0  0  0  0  0  0  0  0  0  0  0
   -1.3079   15.2116    2.0692 N   0  0  0  0  0  0  0  0  0  0  0  0
   -0.3279   14.6760   -0.0654 N   0  0  0  0  0  0  0  0  0  0  0  0
   -2.9886   13.8900   -2.5446 N   0  0  2  0  0  0  0  0  0  0  0  0
   -4.1380   12.5058   -8.3527 H   0  0  0  0  0  0  0  0  0  0  0  0
   -1.8302   11.7045   -7.9200 H   0  0  0  0  0  0  0  0  0  0  0  0
   -5.6966   12.8786   -6.4592 H   0  0  0  0  0  0  0  0  0  0  0  0
   -1.0790   11.2750   -5.6033 H   0  0  0  0  0  0  0  0  0  0  0  0
   -4.9549   12.4539   -4.1388 H   0  0  0  0  0  0  0  0  0  0  0  0
   -3.3583   15.3394    2.1517 H   0  0  0  0  0  0  0  0  0  0  0  0
    0.7171   15.0102    1.6906 H   0  0  0  0  0  0  0  0  0  0  0  0
   -4.5548   13.8469   -0.0876 H   0  0  0  0  0  0  0  0  0  0  0  0
   -4.7047   15.6120   -0.1308 H   0  0  0  0  0  0  0  0  0  0  0  0
   -1.3694   15.2748   -2.6078 H   0  0  0  0  0  0  0  0  0  0  0  0
   -0.9148   13.5824   -2.3348 H   0  0  0  0  0  0  0  0  0  0  0  0
   -5.0458   14.3937   -2.3468 H   0  0  0  0  0  0  0  0  0  0  0  0
   -3.9525   15.7811   -2.3801 H   0  0  0  0  0  0  0  0  0  0  0  0
   -2.6720   10.5189   -3.0512 H   0  0  0  0  0  0  0  0  0  0  0  0
   -1.4289   11.7380   -3.2515 H   0  0  0  0  0  0  0  0  0  0  0  0
   -4.2883   12.3039   -2.3125 H   0  0  0  0  0  0  0  0  0  0  0  0
   -2.8623   12.2662   -1.2606 H   0  0  0  0  0  0  0  0  0  0  0  0
  1  2  1  0  0  0  0
  1  3  2  0  0  0  0
  2  4  2  0  0  0  0
  3  5  1  0  0  0  0
  4  9  1  0  0  0  0
  5  9  2  0  0  0  0
  6  8  1  0  0  0  0
  6 16  2  0  0  0  0
  7 16  1  0  0  0  0
  7 17  2  0  0  0  0
  8 10  2  0  0  0  0
  8 11  1  0  0  0  0
  9 14  1  0  0  0  0
 10 12  1  0  0  0  0
 10 17  1  0  0  0  0
 11 13  1  0  0  0  0
 12 18  1  0  0  0  0
 13 18  1  0  0  0  0
 14 15  1  0  0  0  0
 15 18  1  0  0  0  0
  1 19  1  0  0  0  0
  2 20  1  0  0  0  0
  3 21  1  0  0  0  0
  4 22  1  0  0  0  0
  5 23  1  0  0  0  0
  6 24  1  0  0  0  0
  7 25  1  0  0  0  0
 11 26  1  0  0  0  0
 11 27  1  0  0  0  0
 12 28  1  0  0  0  0
 12 29  1  0  0  0  0
 13 30  1  0  0  0  0
 13 31  1  0  0  0  0
 14 32  1  0  0  0  0
 14 33  1  0  0  0  0
 15 34  1  0  0  0  0
 15 35  1  0  0  0  0
M  END
> <HYBRID receptor title>
5S18(A) > WOY(A-201)

> <HYBRID receptor filename>
data/docking/5s18.oedu

> <HYBRID Chemgauss4 score>
-6.261516

> <HYBRID receptor title>
5S18(A) > WOY(A-201)

> <HYBRID receptor filename>
data/docking/5s18.oedu

> <Dock Type>
Hybrid

$$$$
MOL0087
  -OEChem-07032400353D

 18 19  0     0  0  0  0  0  0999 V2000
   -4.2503   14.7982   -0.5341 C   0  0  0  0  0  0  0  0  0  0  0  0
   -2.6163   14.8516    1.3013 C   0  0  0  0  0  0  0  0  0  0  0  0
   -2.1715   14.8803   -2.2884 C   0  0  0  0  0  0  0  0  0  0  0  0
   -0.4021   14.9342    0.8295 C   0  0  0  0  0  0  0  0  0  0  0  0
   -2.9357   14.8444   -0.0539 C   0  0  0  0  0  0  0  0  0  0  0  0
   -1.8529   14.8873   -0.9402 C   0  0  0  0  0  0  0  0  0  0  0  0
   -4.4370   14.7958   -1.9043 C   0  0  0  0  0  0  0  0  0  0  0  0
   -5.8213   14.7462   -2.4581 C   0  0  0  0  0  0  0  0  0  0  0  0
   -1.3562   14.8958    1.7752 N   0  0  0  0  0  0  0  0  0  0  0  0
   -3.4265   14.8361   -2.7966 N   0  0  0  0  0  0  0  0  0  0  0  0
   -0.5796   14.9325   -0.5069 N   0  0  0  0  0  0  0  0  0  0  0  0
   -5.0962   14.7641    0.1459 H   0  0  0  0  0  0  0  0  0  0  0  0
   -3.3871   14.8203    2.0657 H   0  0  0  0  0  0  0  0  0  0  0  0
   -1.3880   14.9102   -3.0412 H   0  0  0  0  0  0  0  0  0  0  0  0
    0.6230   14.9702    1.1781 H   0  0  0  0  0  0  0  0  0  0  0  0
   -6.2291   15.7551   -2.6027 H   0  0  0  0  0  0  0  0  0  0  0  0
   -6.5039   14.2218   -1.7766 H   0  0  0  0  0  0  0  0  0  0  0  0
   -5.8273   14.2269   -3.4242 H   0  0  0  0  0  0  0  0  0  0  0  0
  1  5  2  0  0  0  0
  1  7  1  0  0  0  0
  2  5  1  0  0  0  0
  2  9  2  0  0  0  0
  3  6  2  0  0  0  0
  3 10  1  0  0  0  0
  4  9  1  0  0  0  0
  4 11  2  0  0  0  0
  5  6  1  0  0  0  0
  6 11  1  0  0  0  0
  7  8  1  0  0  0  0
  7 10  2  0  0  0  0
  1 12  1  0  0  0  0
  2 13  1  0  0  0  0
  3 14  1  0  0  0  0
  4 15  1  0  0  0  0
  8 16  1  0  0  0  0
  8 17  1  0  0  0  0
  8 18  1  0  0  0  0
M  END
> <HYBRID receptor title>
5S18(A) > WOY(A-201)

> <HYBRID receptor filename>
data/docking/5s18.oedu

> <HYBRID Chemgauss4 score>
-6.237873

> <HYBRID receptor title>
5S18(A) > WOY(A-201)

> <HYBRID receptor filename>
data/docking/5s18.oedu

> <Dock Type>
Hybrid

$$$$
MOL0185
  -OEChem-07032400353D

 22 23  0     0  0  0  0  0  0999 V2000
   -1.4569   14.4362   -0.9881 C   0  0  0  0  0  0  0  0  0  0  0  0
   -0.1342   14.8408    0.8296 C   0  0  0  0  0  0  0  0  0  0  0  0
   -2.5515   14.8345   -0.2659 C   0  0  0  0  0  0  0  0  0  0  0  0
   -2.3524   15.2364    1.0424 C   0  0  0  0  0  0  0  0  0  0  0  0
   -3.9884   14.9188   -0.6482 C   0  0  0  0  0  0  0  0  0  0  0  0
   -4.6457   15.4477    0.6669 C   0  0  0  0  0  0  0  0  0  0  0  0
   -5.6598   14.4423    1.2195 C   0  0  0  0  0  0  0  0  0  0  0  0
   -5.3161   16.8056    0.4410 C   0  0  0  0  0  0  0  0  0  0  0  0
   -0.2174   14.4292   -0.4573 N   0  0  0  0  0  0  0  0  0  0  0  0
   -1.1433   15.2518    1.6276 N   0  0  0  0  0  0  0  0  0  0  0  0
   -3.5621   15.6093    1.6366 N   0  0  0  0  0  0  0  0  0  0  0  0
   -1.5331   14.1082   -2.0177 H   0  0  0  0  0  0  0  0  0  0  0  0
    0.8561   14.8400    1.2692 H   0  0  0  0  0  0  0  0  0  0  0  0
   -4.1157   15.6143   -1.4842 H   0  0  0  0  0  0  0  0  0  0  0  0
   -4.3623   13.9290   -0.9299 H   0  0  0  0  0  0  0  0  0  0  0  0
   -6.1016   14.8336    2.1326 H   0  0  0  0  0  0  0  0  0  0  0  0
   -5.1602   13.5012    1.4360 H   0  0  0  0  0  0  0  0  0  0  0  0
   -6.4439   14.2724    0.4846 H   0  0  0  0  0  0  0  0  0  0  0  0
   -5.7646   17.1505    1.3694 H   0  0  0  0  0  0  0  0  0  0  0  0
   -6.0886   16.7097   -0.3181 H   0  0  0  0  0  0  0  0  0  0  0  0
   -4.5741   17.5291    0.1095 H   0  0  0  0  0  0  0  0  0  0  0  0
   -3.6592   15.9355    2.5857 H   0  0  0  0  0  0  0  0  0  0  0  0
  1  3  1  0  0  0  0
  1  9  2  0  0  0  0
  2  9  1  0  0  0  0
  2 10  2  0  0  0  0
  3  4  2  0  0  0  0
  3  5  1  0  0  0  0
  4 10  1  0  0  0  0
  4 11  1  0  0  0  0
  5  6  1  0  0  0  0
  6  7  1  0  0  0  0
  6  8  1  0  0  0  0
  6 11  1  0  0  0  0
  1 12  1  0  0  0  0
  2 13  1  0  0  0  0
  5 14  1  0  0  0  0
  5 15  1  0  0  0  0
  7 16  1  0  0  0  0
  7 17  1  0  0  0  0
  7 18  1  0  0  0  0
  8 19  1  0  0  0  0
  8 20  1  0  0  0  0
  8 21  1  0  0  0  0
 11 22  1  0  0  0  0
M  END
> <HYBRID receptor title>
5S18(A) > WOY(A-201)

> <HYBRID receptor filename>
data/docking/5s18.oedu

> <HYBRID Chemgauss4 score>
-6.220365

> <HYBRID receptor title>
5S18(A) > WOY(A-201)

> <HYBRID receptor filename>
data/docking/5s18.oedu

> <Dock Type>
Hybrid

$$$$
MOL0183
  -OEChem-07032400353D

 24 25  0     0  0  0  0  0  0999 V2000
   -2.5572   15.1905    1.2376 C   0  0  0  0  0  0  0  0  0  0  0  0
   -0.3891   14.5331    1.0991 C   0  0  0  0  0  0  0  0  0  0  0  0
   -2.7380   14.9971   -0.1227 C   0  0  0  0  0  0  0  0  0  0  0  0
   -1.6200   14.5666   -0.8282 C   0  0  0  0  0  0  0  0  0  0  0  0
   -3.0588   15.1763   -4.2672 C   0  0  0  0  0  0  0  0  0  0  0  0
   -4.0390   15.2900   -0.8006 C   0  0  0  0  0  0  0  0  0  0  0  0
   -1.6813   14.3323   -2.3149 C   0  0  0  0  0  0  0  0  0  0  0  0
   -4.1505   14.5623   -2.1362 C   0  0  0  0  0  0  0  0  0  0  0  0
   -4.3787   14.9038   -4.9447 C   0  0  0  0  0  0  0  0  0  0  0  0
   -1.3946   14.9626    1.8805 N   0  0  0  0  0  0  0  0  0  0  0  0
   -0.4318   14.3194   -0.2298 N   0  0  0  0  0  0  0  0  0  0  0  0
   -2.9423   14.7552   -2.9403 N   0  0  0  0  0  0  0  0  0  0  0  0
   -2.1609   15.7397   -4.8970 O   0  0  0  0  0  0  0  0  0  0  0  0
   -3.3662   15.5437    1.8679 H   0  0  0  0  0  0  0  0  0  0  0  0
    0.5560   14.3367    1.5897 H   0  0  0  0  0  0  0  0  0  0  0  0
   -4.8584   14.9809   -0.1400 H   0  0  0  0  0  0  0  0  0  0  0  0
   -4.1381   16.3680   -0.9747 H   0  0  0  0  0  0  0  0  0  0  0  0
   -0.8817   14.9060   -2.7983 H   0  0  0  0  0  0  0  0  0  0  0  0
   -1.5008   13.2710   -2.5067 H   0  0  0  0  0  0  0  0  0  0  0  0
   -4.3468   13.4992   -1.9651 H   0  0  0  0  0  0  0  0  0  0  0  0
   -4.9894   14.9574   -2.7227 H   0  0  0  0  0  0  0  0  0  0  0  0
   -5.0398   15.7488   -4.7843 H   0  0  0  0  0  0  0  0  0  0  0  0
   -4.8157   14.0052   -4.5225 H   0  0  0  0  0  0  0  0  0  0  0  0
   -4.2087   14.7613   -6.0066 H   0  0  0  0  0  0  0  0  0  0  0  0
  1  3  1  0  0  0  0
  1 10  2  0  0  0  0
  2 10  1  0  0  0  0
  2 11  2  0  0  0  0
  3  4  2  0  0  0  0
  3  6  1  0  0  0  0
  4  7  1  0  0  0  0
  4 11  1  0  0  0  0
  5  9  1  0  0  0  0
  5 12  1  0  0  0  0
  5 13  2  0  0  0  0
  6  8  1  0  0  0  0
  7 12  1  0  0  0  0
  8 12  1  0  0  0  0
  1 14  1  0  0  0  0
  2 15  1  0  0  0  0
  6 16  1  0  0  0  0
  6 17  1  0  0  0  0
  7 18  1  0  0  0  0
  7 19  1  0  0  0  0
  8 20  1  0  0  0  0
  8 21  1  0  0  0  0
  9 22  1  0  0  0  0
  9 23  1  0  0  0  0
  9 24  1  0  0  0  0
M  END
> <HYBRID receptor title>
5S18(A) > WOY(A-201)

> <HYBRID receptor filename>
data/docking/5s18.oedu

> <HYBRID Chemgauss4 score>
-6.202832

> <HYBRID receptor title>
5S18(A) > WOY(A-201)

> <HYBRID receptor filename>
data/docking/5s18.oedu

> <Dock Type>
Hybrid

$$$$
MOL0162
  -OEChem-07032400353D

 22 23  0     1  0  0  0  0  0999 V2000
   -2.1774   14.9436    1.2140 C   0  0  0  0  0  0  0  0  0  0  0  0
    0.0941   14.8018    1.0150 C   0  0  0  0  0  0  0  0  0  0  0  0
   -2.2890   14.8798   -0.1504 C   0  0  0  0  0  0  0  0  0  0  0  0
   -1.1249   14.7775   -0.8915 C   0  0  0  0  0  0  0  0  0  0  0  0
   -3.4878   14.9207   -1.0311 C   0  0  0  0  0  0  0  0  0  0  0  0
   -2.8594   14.7321   -2.4388 C   0  0  2  0  0  0  0  0  0  0  0  0
   -2.6486   13.2388   -4.4505 C   0  0  0  0  0  0  0  0  0  0  0  0
   -3.2996   13.4274   -3.0928 C   0  0  0  0  0  0  0  0  0  0  0  0
   -0.9799   14.9042    1.8329 N   0  0  0  0  0  0  0  0  0  0  0  0
    0.0966   14.7357   -0.3342 N   0  0  0  0  0  0  0  0  0  0  0  0
   -1.4126   14.7253   -2.2597 N   0  0  0  0  0  0  0  0  0  0  0  0
   -3.0422   15.0296    1.8606 H   0  0  0  0  0  0  0  0  0  0  0  0
    1.0630   14.7697    1.4991 H   0  0  0  0  0  0  0  0  0  0  0  0
   -4.1954   14.1264   -0.7748 H   0  0  0  0  0  0  0  0  0  0  0  0
   -3.9764   15.8975   -0.9540 H   0  0  0  0  0  0  0  0  0  0  0  0
   -3.1464   15.5690   -3.0863 H   0  0  0  0  0  0  0  0  0  0  0  0
   -1.5569   13.2323   -4.3661 H   0  0  0  0  0  0  0  0  0  0  0  0
   -2.9333   14.0556   -5.1207 H   0  0  0  0  0  0  0  0  0  0  0  0
   -2.9632   12.2964   -4.9098 H   0  0  0  0  0  0  0  0  0  0  0  0
   -4.3876   13.4304   -3.2035 H   0  0  0  0  0  0  0  0  0  0  0  0
   -3.0367   12.5908   -2.4386 H   0  0  0  0  0  0  0  0  0  0  0  0
   -0.7235   14.6307   -2.9893 H   0  0  0  0  0  0  0  0  0  0  0  0
  1  3  1  0  0  0  0
  1  9  2  0  0  0  0
  2  9  1  0  0  0  0
  2 10  2  0  0  0  0
  3  4  2  0  0  0  0
  3  5  1  0  0  0  0
  4 10  1  0  0  0  0
  4 11  1  0  0  0  0
  5  6  1  0  0  0  0
  6  8  1  0  0  0  0
  6 11  1  0  0  0  0
  7  8  1  0  0  0  0
  1 12  1  0  0  0  0
  2 13  1  0  0  0  0
  5 14  1  0  0  0  0
  5 15  1  0  0  0  0
  6 16  1  0  0  0  0
  7 17  1  0  0  0  0
  7 18  1  0  0  0  0
  7 19  1  0  0  0  0
  8 20  1  0  0  0  0
  8 21  1  0  0  0  0
 11 22  1  0  0  0  0
M  END
> <HYBRID receptor title>
5S18(A) > WOY(A-201)

> <HYBRID receptor filename>
data/docking/5s18.oedu

> <HYBRID Chemgauss4 score>
-6.176745

> <HYBRID receptor title>
5S18(A) > WOY(A-201)

> <HYBRID receptor filename>
data/docking/5s18.oedu

> <Dock Type>
Hybrid

$$$$
MOL0200
  -OEChem-07032400353D

 22 23  0     1  0  0  0  0  0999 V2000
   -0.8624   14.3794   -0.7820 C   0  0  0  0  0  0  0  0  0  0  0  0
   -0.0856   14.6791    1.3245 C   0  0  0  0  0  0  0  0  0  0  0  0
   -2.1737   14.5378   -0.3623 C   0  0  0  0  0  0  0  0  0  0  0  0
   -2.3584   14.7436    1.0070 C   0  0  0  0  0  0  0  0  0  0  0  0
   -4.5473   14.8815   -0.7751 C   0  0  0  0  0  0  0  0  0  0  0  0
   -4.7769   14.4550    0.6801 C   0  0  2  0  0  0  0  0  0  0  0  0
   -6.0611   15.0659    1.2305 C   0  0  0  0  0  0  0  0  0  0  0  0
    0.2068   14.4478    0.0348 N   0  0  0  0  0  0  0  0  0  0  0  0
   -1.3111   14.8326    1.8614 N   0  0  0  0  0  0  0  0  0  0  0  0
   -3.2406   14.4520   -1.2375 N   0  0  0  0  0  0  0  0  0  0  0  0
   -3.6521   14.8641    1.5085 N   0  0  0  0  0  0  0  0  0  0  0  0
   -6.2298   14.6331    2.5686 O   0  0  0  0  0  0  0  0  0  0  0  0
   -0.6244   14.1936   -1.8252 H   0  0  0  0  0  0  0  0  0  0  0  0
    0.7523   14.7473    2.0073 H   0  0  0  0  0  0  0  0  0  0  0  0
   -5.3177   14.4469   -1.4219 H   0  0  0  0  0  0  0  0  0  0  0  0
   -4.6214   15.9719   -0.8745 H   0  0  0  0  0  0  0  0  0  0  0  0
   -4.8649   13.3616    0.7245 H   0  0  0  0  0  0  0  0  0  0  0  0
   -6.9143   14.7387    0.6362 H   0  0  0  0  0  0  0  0  0  0  0  0
   -5.9953   16.1544    1.2104 H   0  0  0  0  0  0  0  0  0  0  0  0
   -3.0647   14.3764   -2.2321 H   0  0  0  0  0  0  0  0  0  0  0  0
   -3.7658   14.9762    2.5086 H   0  0  0  0  0  0  0  0  0  0  0  0
   -7.0524   15.0345    2.8961 H   0  0  0  0  0  0  0  0  0  0  0  0
  1  3  1  0  0  0  0
  1  8  2  0  0  0  0
  2  8  1  0  0  0  0
  2  9  2  0  0  0  0
  3  4  2  0  0  0  0
  3 10  1  0  0  0  0
  4  9  1  0  0  0  0
  4 11  1  0  0  0  0
  5  6  1  0  0  0  0
  5 10  1  0  0  0  0
  6  7  1  0  0  0  0
  6 11  1  0  0  0  0
  7 12  1  0  0  0  0
  1 13  1  0  0  0  0
  2 14  1  0  0  0  0
  5 15  1  0  0  0  0
  5 16  1  0  0  0  0
  6 17  1  0  0  0  0
  7 18  1  0  0  0  0
  7 19  1  0  0  0  0
 10 20  1  0  0  0  0
 11 21  1  0  0  0  0
 12 22  1  0  0  0  0
M  END
> <HYBRID receptor title>
5S18(A) > WOY(A-201)

> <HYBRID receptor filename>
data/docking/5s18.oedu

> <HYBRID Chemgauss4 score>
-6.164851

> <HYBRID receptor title>
5S18(A) > WOY(A-201)

> <HYBRID receptor filename>
data/docking/5s18.oedu

> <Dock Type>
Hybrid

$$$$
MOL0216
  -OEChem-07032400353D

 28 30  0     0  0  0  0  0  0999 V2000
   -1.9541   15.0369   -3.2493 C   0  0  0  0  0  0  0  0  0  0  0  0
   -1.3093   12.7871   -2.6490 C   0  0  0  0  0  0  0  0  0  0  0  0
   -2.0483   14.6524   -4.5868 C   0  0  0  0  0  0  0  0  0  0  0  0
   -1.4035   12.4025   -3.9865 C   0  0  0  0  0  0  0  0  0  0  0  0
   -0.1792   14.7302    0.9620 C   0  0  0  0  0  0  0  0  0  0  0  0
   -1.5847   14.1040   -2.2804 C   0  0  0  0  0  0  0  0  0  0  0  0
   -2.5518   15.0020   -0.1952 C   0  0  0  0  0  0  0  0  0  0  0  0
   -1.7729   13.3354   -4.9554 C   0  0  0  0  0  0  0  0  0  0  0  0
   -1.4878   14.5007   -0.8974 C   0  0  0  0  0  0  0  0  0  0  0  0
   -2.3451   15.3631    1.1255 C   0  0  0  0  0  0  0  0  0  0  0  0
   -3.9539   15.2733   -0.6105 C   0  0  0  0  0  0  0  0  0  0  0  0
   -4.6012   15.6861    0.7297 C   0  0  0  0  0  0  0  0  0  0  0  0
   -0.2716   14.3486   -0.3344 N   0  0  0  0  0  0  0  0  0  0  0  0
   -1.1577   15.2395    1.7408 N   0  0  0  0  0  0  0  0  0  0  0  0
   -3.5250   15.8629    1.6899 N   0  0  0  0  0  0  0  0  0  0  0  0
   -1.8689   12.9447   -6.3169 N   0  3  0  0  0  0  0  0  0  0  0  0
   -2.2031   13.7991   -7.1727 O   0  5  0  0  0  0  0  0  0  0  0  0
   -1.6168   11.7551   -6.6274 O   0  0  0  0  0  0  0  0  0  0  0  0
   -2.1726   16.0670   -2.9775 H   0  0  0  0  0  0  0  0  0  0  0  0
   -1.0196   12.0486   -1.9050 H   0  0  0  0  0  0  0  0  0  0  0  0
   -2.3376   15.3892   -5.3322 H   0  0  0  0  0  0  0  0  0  0  0  0
   -1.1865   11.3729   -4.2601 H   0  0  0  0  0  0  0  0  0  0  0  0
    0.7930   14.6139    1.4263 H   0  0  0  0  0  0  0  0  0  0  0  0
   -3.9899   16.0964   -1.3312 H   0  0  0  0  0  0  0  0  0  0  0  0
   -4.4386   14.3841   -1.0240 H   0  0  0  0  0  0  0  0  0  0  0  0
   -5.1859   16.6053    0.6196 H   0  0  0  0  0  0  0  0  0  0  0  0
   -5.2784   14.8983    1.0803 H   0  0  0  0  0  0  0  0  0  0  0  0
   -3.6261   16.1461    2.6519 H   0  0  0  0  0  0  0  0  0  0  0  0
  1  3  2  0  0  0  0
  1  6  1  0  0  0  0
  2  4  1  0  0  0  0
  2  6  2  0  0  0  0
  3  8  1  0  0  0  0
  4  8  2  0  0  0  0
  5 13  2  0  0  0  0
  5 14  1  0  0  0  0
  6  9  1  0  0  0  0
  7  9  2  0  0  0  0
  7 10  1  0  0  0  0
  7 11  1  0  0  0  0
  8 16  1  0  0  0  0
  9 13  1  0  0  0  0
 10 14  2  0  0  0  0
 10 15  1  0  0  0  0
 11 12  1  0  0  0  0
 12 15  1  0  0  0  0
 16 17  1  0  0  0  0
 16 18  2  0  0  0  0
  1 19  1  0  0  0  0
  2 20  1  0  0  0  0
  3 21  1  0  0  0  0
  4 22  1  0  0  0  0
  5 23  1  0  0  0  0
 11 24  1  0  0  0  0
 11 25  1  0  0  0  0
 12 26  1  0  0  0  0
 12 27  1  0  0  0  0
 15 28  1  0  0  0  0
M  CHG  2  16   1  17  -1
M  END
> <HYBRID receptor title>
5S18(A) > WOY(A-201)

> <HYBRID receptor filename>
data/docking/5s18.oedu

> <HYBRID Chemgauss4 score>
-6.164459

> <HYBRID receptor title>
5S18(A) > WOY(A-201)

> <HYBRID receptor filename>
data/docking/5s18.oedu

> <Dock Type>
Hybrid

$$$$
MOL0041
  -OEChem-07032400353D

 32 34  0     1  0  0  0  0  0999 V2000
   -6.2833   11.2134   -4.0043 C   0  0  0  0  0  0  0  0  0  0  0  0
   -4.8981   11.2679   -4.1595 C   0  0  0  0  0  0  0  0  0  0  0  0
   -7.0068   12.3860   -3.7874 C   0  0  0  0  0  0  0  0  0  0  0  0
   -4.2367   12.4945   -4.0982 C   0  0  0  0  0  0  0  0  0  0  0  0
   -6.3453   13.6126   -3.7261 C   0  0  0  0  0  0  0  0  0  0  0  0
   -2.6463   15.3026    1.5796 C   0  0  0  0  0  0  0  0  0  0  0  0
   -0.5603   14.6686    0.9412 C   0  0  0  0  0  0  0  0  0  0  0  0
   -3.1149   15.1815    0.2829 C   0  0  0  0  0  0  0  0  0  0  0  0
   -4.9602   13.6671   -3.8813 C   0  0  0  0  0  0  0  0  0  0  0  0
   -2.1762   14.7961   -0.6676 C   0  0  0  0  0  0  0  0  0  0  0  0
   -4.5245   15.5134   -0.0963 C   0  0  0  0  0  0  0  0  0  0  0  0
   -2.5951   14.5989   -2.1047 C   0  0  0  0  0  0  0  0  0  0  0  0
   -4.8954   14.9913   -1.4898 C   0  0  0  0  0  0  0  0  0  0  0  0
   -4.2485   14.9879   -3.8151 C   0  0  0  0  0  0  0  0  0  0  0  0
   -1.3727   15.0487    1.9438 N   0  0  0  0  0  0  0  0  0  0  0  0
   -0.8887   14.5227   -0.3571 N   0  0  0  0  0  0  0  0  0  0  0  0
   -3.8330   15.3182   -2.4517 N   0  0  2  0  0  0  0  0  0  0  0  0
   -6.7983   10.2585   -4.0520 H   0  0  0  0  0  0  0  0  0  0  0  0
   -4.3347   10.3550   -4.3288 H   0  0  0  0  0  0  0  0  0  0  0  0
   -8.0853   12.3438   -3.6663 H   0  0  0  0  0  0  0  0  0  0  0  0
   -3.1572   12.5270   -4.2202 H   0  0  0  0  0  0  0  0  0  0  0  0
   -6.9178   14.5210   -3.5577 H   0  0  0  0  0  0  0  0  0  0  0  0
   -3.2996   15.6143    2.3880 H   0  0  0  0  0  0  0  0  0  0  0  0
    0.4683   14.4575    1.2053 H   0  0  0  0  0  0  0  0  0  0  0  0
   -5.1946   15.0674    0.6495 H   0  0  0  0  0  0  0  0  0  0  0  0
   -4.6730   16.5992   -0.0727 H   0  0  0  0  0  0  0  0  0  0  0  0
   -1.7618   14.9236   -2.7420 H   0  0  0  0  0  0  0  0  0  0  0  0
   -2.7467   13.5254   -2.2725 H   0  0  0  0  0  0  0  0  0  0  0  0
   -5.0336   13.9052   -1.4216 H   0  0  0  0  0  0  0  0  0  0  0  0
   -5.8546   15.4204   -1.8102 H   0  0  0  0  0  0  0  0  0  0  0  0
   -3.3543   14.9765   -4.4471 H   0  0  0  0  0  0  0  0  0  0  0  0
   -4.8907   15.7986   -4.1749 H   0  0  0  0  0  0  0  0  0  0  0  0
  1  2  1  0  0  0  0
  1  3  2  0  0  0  0
  2  4  2  0  0  0  0
  3  5  1  0  0  0  0
  4  9  1  0  0  0  0
  5  9  2  0  0  0  0
  6  8  1  0  0  0  0
  6 15  2  0  0  0  0
  7 15  1  0  0  0  0
  7 16  2  0  0  0  0
  8 10  2  0  0  0  0
  8 11  1  0  0  0  0
  9 14  1  0  0  0  0
 10 12  1  0  0  0  0
 10 16  1  0  0  0  0
 11 13  1  0  0  0  0
 12 17  1  0  0  0  0
 13 17  1  0  0  0  0
 14 17  1  0  0  0  0
  1 18  1  0  0  0  0
  2 19  1  0  0  0  0
  3 20  1  0  0  0  0
  4 21  1  0  0  0  0
  5 22  1  0  0  0  0
  6 23  1  0  0  0  0
  7 24  1  0  0  0  0
 11 25  1  0  0  0  0
 11 26  1  0  0  0  0
 12 27  1  0  0  0  0
 12 28  1  0  0  0  0
 13 29  1  0  0  0  0
 13 30  1  0  0  0  0
 14 31  1  0  0  0  0
 14 32  1  0  0  0  0
M  END
> <HYBRID receptor title>
5S18(A) > WOY(A-201)

> <HYBRID receptor filename>
data/docking/5s18.oedu

> <HYBRID Chemgauss4 score>
-6.159642

> <HYBRID receptor title>
5S18(A) > WOY(A-201)

> <HYBRID receptor filename>
data/docking/5s18.oedu

> <Dock Type>
Hybrid

$$$$
MOL0198
  -OEChem-07032400353D

 25 26  0     1  0  0  0  0  0999 V2000
   -1.0783   14.4731   -0.9405 C   0  0  0  0  0  0  0  0  0  0  0  0
   -0.0578   14.8160    1.0527 C   0  0  0  0  0  0  0  0  0  0  0  0
   -2.3295   14.6713   -0.3778 C   0  0  0  0  0  0  0  0  0  0  0  0
   -2.3454   14.9903    0.9821 C   0  0  0  0  0  0  0  0  0  0  0  0
   -4.7267   15.5261    0.7828 C   0  0  0  0  0  0  0  0  0  0  0  0
   -4.7688   14.5907   -0.4321 C   0  0  1  0  0  0  0  0  0  0  0  0
   -5.8757   15.0010   -1.3962 C   0  0  0  0  0  0  0  0  0  0  0  0
   -7.2459   14.9092   -0.7474 C   0  0  0  0  0  0  0  0  0  0  0  0
    0.0797   14.5341   -0.2531 N   0  0  0  0  0  0  0  0  0  0  0  0
   -1.2071   15.0478    1.7145 N   0  0  0  0  0  0  0  0  0  0  0  0
   -3.4898   14.6064   -1.1279 N   0  0  0  0  0  0  0  0  0  0  0  0
   -3.5645   15.2484    1.6037 N   0  0  0  0  0  0  0  0  0  0  0  0
   -7.4607   13.5691   -0.3263 O   0  0  0  0  0  0  0  0  0  0  0  0
   -0.9664   14.2438   -1.9962 H   0  0  0  0  0  0  0  0  0  0  0  0
    0.8533   14.8649    1.6364 H   0  0  0  0  0  0  0  0  0  0  0  0
   -4.6975   16.5755    0.4627 H   0  0  0  0  0  0  0  0  0  0  0  0
   -5.6318   15.4001    1.3873 H   0  0  0  0  0  0  0  0  0  0  0  0
   -4.9671   13.5668   -0.0890 H   0  0  0  0  0  0  0  0  0  0  0  0
   -5.6967   16.0228   -1.7457 H   0  0  0  0  0  0  0  0  0  0  0  0
   -5.8412   14.3638   -2.2856 H   0  0  0  0  0  0  0  0  0  0  0  0
   -7.3105   15.5640    0.1278 H   0  0  0  0  0  0  0  0  0  0  0  0
   -8.0351   15.1827   -1.4555 H   0  0  0  0  0  0  0  0  0  0  0  0
   -3.4372   14.2703   -2.0824 H   0  0  0  0  0  0  0  0  0  0  0  0
   -3.5618   15.5002    2.5843 H   0  0  0  0  0  0  0  0  0  0  0  0
   -8.3407   13.5416    0.0828 H   0  0  0  0  0  0  0  0  0  0  0  0
  1  3  1  0  0  0  0
  1  9  2  0  0  0  0
  2  9  1  0  0  0  0
  2 10  2  0  0  0  0
  3  4  2  0  0  0  0
  3 11  1  0  0  0  0
  4 10  1  0  0  0  0
  4 12  1  0  0  0  0
  5  6  1  0  0  0  0
  5 12  1  0  0  0  0
  6  7  1  0  0  0  0
  6 11  1  0  0  0  0
  7  8  1  0  0  0  0
  8 13  1  0  0  0  0
  1 14  1  0  0  0  0
  2 15  1  0  0  0  0
  5 16  1  0  0  0  0
  5 17  1  0  0  0  0
  6 18  1  0  0  0  0
  7 19  1  0  0  0  0
  7 20  1  0  0  0  0
  8 21  1  0  0  0  0
  8 22  1  0  0  0  0
 11 23  1  0  0  0  0
 12 24  1  0  0  0  0
 13 25  1  0  0  0  0
M  END
> <HYBRID receptor title>
5S18(A) > WOY(A-201)

> <HYBRID receptor filename>
data/docking/5s18.oedu

> <HYBRID Chemgauss4 score>
-6.157124

> <HYBRID receptor title>
5S18(A) > WOY(A-201)

> <HYBRID receptor filename>
data/docking/5s18.oedu

> <Dock Type>
Hybrid

$$$$
MOL0006
  -OEChem-07032400353D

 20 21  0     0  0  0  0  0  0999 V2000
   -2.5692   14.7012    1.3071 C   0  0  0  0  0  0  0  0  0  0  0  0
   -0.3215   14.6650    0.9956 C   0  0  0  0  0  0  0  0  0  0  0  0
   -2.7963   14.7239   -0.0606 C   0  0  0  0  0  0  0  0  0  0  0  0
   -1.6571   14.7346   -0.8604 C   0  0  0  0  0  0  0  0  0  0  0  0
   -4.1852   14.8041   -0.6199 C   0  0  0  0  0  0  0  0  0  0  0  0
   -1.7644   14.7289   -2.3626 C   0  0  0  0  0  0  0  0  0  0  0  0
   -4.2460   14.4722   -2.1110 C   0  0  0  0  0  0  0  0  0  0  0  0
   -3.1316   15.1885   -2.8671 C   0  0  0  0  0  0  0  0  0  0  0  0
   -1.3442   14.6671    1.8679 N   0  0  0  0  0  0  0  0  0  0  0  0
   -0.4048   14.6952   -0.3481 N   0  0  0  0  0  0  0  0  0  0  0  0
   -3.3933   14.7118    2.0138 H   0  0  0  0  0  0  0  0  0  0  0  0
    0.6757   14.6364    1.4171 H   0  0  0  0  0  0  0  0  0  0  0  0
   -4.8491   14.1209   -0.0768 H   0  0  0  0  0  0  0  0  0  0  0  0
   -4.5590   15.8236   -0.4628 H   0  0  0  0  0  0  0  0  0  0  0  0
   -0.9859   15.3713   -2.7904 H   0  0  0  0  0  0  0  0  0  0  0  0
   -1.5733   13.7058   -2.7094 H   0  0  0  0  0  0  0  0  0  0  0  0
   -4.1461   13.3888   -2.2544 H   0  0  0  0  0  0  0  0  0  0  0  0
   -5.2235   14.7599   -2.5137 H   0  0  0  0  0  0  0  0  0  0  0  0
   -3.2347   16.2727   -2.7320 H   0  0  0  0  0  0  0  0  0  0  0  0
   -3.2137   14.9883   -3.9411 H   0  0  0  0  0  0  0  0  0  0  0  0
  1  3  1  0  0  0  0
  1  9  2  0  0  0  0
  2  9  1  0  0  0  0
  2 10  2  0  0  0  0
  3  4  2  0  0  0  0
  3  5  1  0  0  0  0
  4  6  1  0  0  0  0
  4 10  1  0  0  0  0
  5  7  1  0  0  0  0
  6  8  1  0  0  0  0
  7  8  1  0  0  0  0
  1 11  1  0  0  0  0
  2 12  1  0  0  0  0
  5 13  1  0  0  0  0
  5 14  1  0  0  0  0
  6 15  1  0  0  0  0
  6 16  1  0  0  0  0
  7 17  1  0  0  0  0
  7 18  1  0  0  0  0
  8 19  1  0  0  0  0
  8 20  1  0  0  0  0
M  END
> <HYBRID receptor title>
5S18(A) > WOY(A-201)

> <HYBRID receptor filename>
data/docking/5s18.oedu

> <HYBRID Chemgauss4 score>
-6.105341

> <HYBRID receptor title>
5S18(A) > WOY(A-201)

> <HYBRID receptor filename>
data/docking/5s18.oedu

> <Dock Type>
Hybrid

$$$$
MOL0027
  -OEChem-07032400353D

 19 20  0     1  0  0  0  0  0999 V2000
   -2.3255   15.0437    1.2770 C   0  0  0  0  0  0  0  0  0  0  0  0
   -0.0645   14.9149    0.9815 C   0  0  0  0  0  0  0  0  0  0  0  0
   -2.4992   14.8766   -0.0724 C   0  0  0  0  0  0  0  0  0  0  0  0
   -1.3691   14.7331   -0.8579 C   0  0  0  0  0  0  0  0  0  0  0  0
   -3.7377   14.8371   -0.8960 C   0  0  0  0  0  0  0  0  0  0  0  0
   -3.1725   14.5498   -2.3139 C   0  0  2  0  0  0  0  0  0  0  0  0
   -3.6207   13.1932   -2.8461 C   0  0  0  0  0  0  0  0  0  0  0  0
   -1.1005   15.0653    1.8396 N   0  0  0  0  0  0  0  0  0  0  0  0
   -0.1224   14.7478   -0.3574 N   0  0  0  0  0  0  0  0  0  0  0  0
   -1.7190   14.5752   -2.2035 N   0  0  0  0  0  0  0  0  0  0  0  0
   -3.1607   15.1678    1.9554 H   0  0  0  0  0  0  0  0  0  0  0  0
    0.9260   14.9307    1.4207 H   0  0  0  0  0  0  0  0  0  0  0  0
   -4.4208   14.0563   -0.5477 H   0  0  0  0  0  0  0  0  0  0  0  0
   -4.2368   15.8114   -0.8698 H   0  0  0  0  0  0  0  0  0  0  0  0
   -3.5029   15.3309   -3.0088 H   0  0  0  0  0  0  0  0  0  0  0  0
   -3.3007   12.4033   -2.1674 H   0  0  0  0  0  0  0  0  0  0  0  0
   -3.1832   13.0160   -3.8280 H   0  0  0  0  0  0  0  0  0  0  0  0
   -4.7073   13.1677   -2.9325 H   0  0  0  0  0  0  0  0  0  0  0  0
   -1.0630   14.4346   -2.9557 H   0  0  0  0  0  0  0  0  0  0  0  0
  1  3  1  0  0  0  0
  1  8  2  0  0  0  0
  2  8  1  0  0  0  0
  2  9  2  0  0  0  0
  3  4  2  0  0  0  0
  3  5  1  0  0  0  0
  4  9  1  0  0  0  0
  4 10  1  0  0  0  0
  5  6  1  0  0  0  0
  6  7  1  0  0  0  0
  6 10  1  0  0  0  0
  1 11  1  0  0  0  0
  2 12  1  0  0  0  0
  5 13  1  0  0  0  0
  5 14  1  0  0  0  0
  6 15  1  0  0  0  0
  7 16  1  0  0  0  0
  7 17  1  0  0  0  0
  7 18  1  0  0  0  0
 10 19  1  0  0  0  0
M  END
> <HYBRID receptor title>
5S18(A) > WOY(A-201)

> <HYBRID receptor filename>
data/docking/5s18.oedu

> <HYBRID Chemgauss4 score>
-6.103391

> <HYBRID receptor title>
5S18(A) > WOY(A-201)

> <HYBRID receptor filename>
data/docking/5s18.oedu

> <Dock Type>
Hybrid

$$$$
MOL0120
  -OEChem-07032400353D

 22 23  0     1  0  0  0  0  0999 V2000
   -2.9885   15.2656    1.5064 C   0  0  0  0  0  0  0  0  0  0  0  0
   -0.8242   14.7609    1.0495 C   0  0  0  0  0  0  0  0  0  0  0  0
   -3.3337   15.1458    0.1697 C   0  0  0  0  0  0  0  0  0  0  0  0
   -2.3048   14.7824   -0.6949 C   0  0  0  0  0  0  0  0  0  0  0  0
   -4.7435   15.3329   -0.3042 C   0  0  0  0  0  0  0  0  0  0  0  0
   -4.0876   14.5360   -2.4761 C   0  0  0  0  0  0  0  0  0  0  0  0
   -2.5807   14.6666   -2.1828 C   0  0  2  0  0  0  0  0  0  0  0  0
   -1.8301   13.4960   -2.8237 C   0  0  0  0  0  0  0  0  0  0  0  0
   -1.7405   15.0820    1.9799 N   0  0  0  0  0  0  0  0  0  0  0  0
   -1.0312   14.6046   -0.2717 N   0  0  0  0  0  0  0  0  0  0  0  0
   -4.8412   15.5598   -1.7499 N   0  0  0  0  0  0  0  0  0  0  0  0
   -3.7289   15.5224    2.2575 H   0  0  0  0  0  0  0  0  0  0  0  0
    0.1897   14.6116    1.4001 H   0  0  0  0  0  0  0  0  0  0  0  0
   -5.3314   14.4490   -0.0272 H   0  0  0  0  0  0  0  0  0  0  0  0
   -5.1863   16.1979    0.2024 H   0  0  0  0  0  0  0  0  0  0  0  0
   -4.2590   14.6653   -3.5512 H   0  0  0  0  0  0  0  0  0  0  0  0
   -4.4598   13.5370   -2.2129 H   0  0  0  0  0  0  0  0  0  0  0  0
   -2.2204   15.5983   -2.6408 H   0  0  0  0  0  0  0  0  0  0  0  0
   -2.1699   12.5605   -2.3860 H   0  0  0  0  0  0  0  0  0  0  0  0
   -0.7625   13.6075   -2.6502 H   0  0  0  0  0  0  0  0  0  0  0  0
   -2.0205   13.4818   -3.8950 H   0  0  0  0  0  0  0  0  0  0  0  0
   -5.8216   15.5223   -2.0273 H   0  0  0  0  0  0  0  0  0  0  0  0
  1  3  1  0  0  0  0
  1  9  2  0  0  0  0
  2  9  1  0  0  0  0
  2 10  2  0  0  0  0
  3  4  2  0  0  0  0
  3  5  1  0  0  0  0
  4  7  1  0  0  0  0
  4 10  1  0  0  0  0
  5 11  1  0  0  0  0
  6  7  1  0  0  0  0
  6 11  1  0  0  0  0
  7  8  1  0  0  0  0
  1 12  1  0  0  0  0
  2 13  1  0  0  0  0
  5 14  1  0  0  0  0
  5 15  1  0  0  0  0
  6 16  1  0  0  0  0
  6 17  1  0  0  0  0
  7 18  1  0  0  0  0
  8 19  1  0  0  0  0
  8 20  1  0  0  0  0
  8 21  1  0  0  0  0
 11 22  1  0  0  0  0
M  END
> <HYBRID receptor title>
5S18(A) > WOY(A-201)

> <HYBRID receptor filename>
data/docking/5s18.oedu

> <HYBRID Chemgauss4 score>
-6.098689

> <HYBRID receptor title>
5S18(A) > WOY(A-201)

> <HYBRID receptor filename>
data/docking/5s18.oedu

> <Dock Type>
Hybrid

$$$$
MOL0109
  -OEChem-07032400353D

 24 25  0     1  0  0  0  0  0999 V2000
   -1.2617   14.8352   -0.8173 C   0  0  0  0  0  0  0  0  0  0  0  0
   -0.2303   14.9307    1.1969 C   0  0  0  0  0  0  0  0  0  0  0  0
   -2.5104   14.7700   -0.2184 C   0  0  0  0  0  0  0  0  0  0  0  0
   -2.5232   14.8300    1.1775 C   0  0  0  0  0  0  0  0  0  0  0  0
   -4.9575   15.0938    1.0992 C   0  0  0  0  0  0  0  0  0  0  0  0
   -4.9235   14.3991   -0.2675 C   0  0  1  0  0  0  0  0  0  0  0  0
   -7.4264   14.5077   -0.4732 C   0  0  0  0  0  0  0  0  0  0  0  0
   -6.0997   14.8390   -1.1310 C   0  0  0  0  0  0  0  0  0  0  0  0
   -0.1010   14.9123   -0.1391 N   0  0  0  0  0  0  0  0  0  0  0  0
   -1.3785   14.8928    1.8988 N   0  0  0  0  0  0  0  0  0  0  0  0
   -3.6767   14.7002   -0.9585 N   0  0  0  0  0  0  0  0  0  0  0  0
   -3.7445   14.8165    1.8451 N   0  0  0  0  0  0  0  0  0  0  0  0
   -1.1551   14.8191   -1.8980 H   0  0  0  0  0  0  0  0  0  0  0  0
    0.6858   14.9841    1.7723 H   0  0  0  0  0  0  0  0  0  0  0  0
   -5.0647   16.1794    0.9796 H   0  0  0  0  0  0  0  0  0  0  0  0
   -5.8215   14.7474    1.6772 H   0  0  0  0  0  0  0  0  0  0  0  0
   -4.9866   13.3131   -0.1191 H   0  0  0  0  0  0  0  0  0  0  0  0
   -7.5137   14.9942    0.5038 H   0  0  0  0  0  0  0  0  0  0  0  0
   -7.5127   13.4271   -0.3244 H   0  0  0  0  0  0  0  0  0  0  0  0
   -8.2659   14.8337   -1.0954 H   0  0  0  0  0  0  0  0  0  0  0  0
   -6.0366   14.3426   -2.1033 H   0  0  0  0  0  0  0  0  0  0  0  0
   -6.0338   15.9170   -1.3056 H   0  0  0  0  0  0  0  0  0  0  0  0
   -3.6135   14.5541   -1.9592 H   0  0  0  0  0  0  0  0  0  0  0  0
   -3.7426   14.8821    2.8553 H   0  0  0  0  0  0  0  0  0  0  0  0
  1  3  1  0  0  0  0
  1  9  2  0  0  0  0
  2  9  1  0  0  0  0
  2 10  2  0  0  0  0
  3  4  2  0  0  0  0
  3 11  1  0  0  0  0
  4 10  1  0  0  0  0
  4 12  1  0  0  0  0
  5  6  1  0  0  0  0
  5 12  1  0  0  0  0
  6  8  1  0  0  0  0
  6 11  1  0  0  0  0
  7  8  1  0  0  0  0
  1 13  1  0  0  0  0
  2 14  1  0  0  0  0
  5 15  1  0  0  0  0
  5 16  1  0  0  0  0
  6 17  1  0  0  0  0
  7 18  1  0  0  0  0
  7 19  1  0  0  0  0
  7 20  1  0  0  0  0
  8 21  1  0  0  0  0
  8 22  1  0  0  0  0
 11 23  1  0  0  0  0
 12 24  1  0  0  0  0
M  END
> <HYBRID receptor title>
5S18(A) > WOY(A-201)

> <HYBRID receptor filename>
data/docking/5s18.oedu

> <HYBRID Chemgauss4 score>
-6.089729

> <HYBRID receptor title>
5S18(A) > WOY(A-201)

> <HYBRID receptor filename>
data/docking/5s18.oedu

> <Dock Type>
Hybrid

$$$$
MOL0044
  -OEChem-07032400353D

 21 22  0     1  0  0  0  0  0999 V2000
   -1.2004   14.8269   -0.8264 C   0  0  0  0  0  0  0  0  0  0  0  0
   -0.1496   14.8689    1.1795 C   0  0  0  0  0  0  0  0  0  0  0  0
   -2.4443   14.8981   -0.2197 C   0  0  0  0  0  0  0  0  0  0  0  0
   -2.4452   14.9193    1.1768 C   0  0  0  0  0  0  0  0  0  0  0  0
   -4.8500   15.2558   -0.2695 C   0  0  0  0  0  0  0  0  0  0  0  0
   -4.9034   14.6750    1.1484 C   0  0  1  0  0  0  0  0  0  0  0  0
   -5.1932   13.1741    1.1510 C   0  0  0  0  0  0  0  0  0  0  0  0
   -0.0314   14.8148   -0.1566 N   0  0  0  0  0  0  0  0  0  0  0  0
   -1.2929   14.9204    1.8890 N   0  0  0  0  0  0  0  0  0  0  0  0
   -3.6188   14.8979   -0.9495 N   0  0  0  0  0  0  0  0  0  0  0  0
   -3.6586   14.9348    1.8571 N   0  0  0  0  0  0  0  0  0  0  0  0
   -1.1042   14.7682   -1.9066 H   0  0  0  0  0  0  0  0  0  0  0  0
    0.7721   14.8746    1.7482 H   0  0  0  0  0  0  0  0  0  0  0  0
   -5.7037   14.8980   -0.8661 H   0  0  0  0  0  0  0  0  0  0  0  0
   -4.9324   16.3516   -0.2320 H   0  0  0  0  0  0  0  0  0  0  0  0
   -5.7211   15.1791    1.7067 H   0  0  0  0  0  0  0  0  0  0  0  0
   -4.4101   12.6435    0.6108 H   0  0  0  0  0  0  0  0  0  0  0  0
   -6.1509   12.9798    0.6693 H   0  0  0  0  0  0  0  0  0  0  0  0
   -5.2304   12.8041    2.1759 H   0  0  0  0  0  0  0  0  0  0  0  0
   -3.6622   14.3923   -1.8250 H   0  0  0  0  0  0  0  0  0  0  0  0
   -3.6795   15.3834    2.7740 H   0  0  0  0  0  0  0  0  0  0  0  0
  1  3  1  0  0  0  0
  1  8  2  0  0  0  0
  2  8  1  0  0  0  0
  2  9  2  0  0  0  0
  3  4  2  0  0  0  0
  3 10  1  0  0  0  0
  4  9  1  0  0  0  0
  4 11  1  0  0  0  0
  5  6  1  0  0  0  0
  5 10  1  0  0  0  0
  6  7  1  0  0  0  0
  6 11  1  0  0  0  0
  1 12  1  0  0  0  0
  2 13  1  0  0  0  0
  5 14  1  0  0  0  0
  5 15  1  0  0  0  0
  6 16  1  0  0  0  0
  7 17  1  0  0  0  0
  7 18  1  0  0  0  0
  7 19  1  0  0  0  0
 10 20  1  0  0  0  0
 11 21  1  0  0  0  0
M  END
> <HYBRID receptor title>
5S18(A) > WOY(A-201)

> <HYBRID receptor filename>
data/docking/5s18.oedu

> <HYBRID Chemgauss4 score>
-6.084113

> <HYBRID receptor title>
5S18(A) > WOY(A-201)

> <HYBRID receptor filename>
data/docking/5s18.oedu

> <Dock Type>
Hybrid

$$$$
MOL0150
  -OEChem-07032400353D

 25 26  0     1  0  0  0  0  0999 V2000
   -2.5106   14.8835    1.5304 C   0  0  0  0  0  0  0  0  0  0  0  0
   -0.3042   14.9076    0.9951 C   0  0  0  0  0  0  0  0  0  0  0  0
   -2.8665   14.7313    0.2006 C   0  0  0  0  0  0  0  0  0  0  0  0
   -1.8132   14.6966   -0.7071 C   0  0  0  0  0  0  0  0  0  0  0  0
   -4.2970   14.6803   -0.2411 C   0  0  0  0  0  0  0  0  0  0  0  0
   -2.0797   14.5244   -2.1803 C   0  0  0  0  0  0  0  0  0  0  0  0
   -4.4453   14.0600   -1.6288 C   0  0  0  0  0  0  0  0  0  0  0  0
   -3.3589   12.8758   -4.4454 C   0  0  0  0  0  0  0  0  0  0  0  0
   -1.2366   14.9708    1.9628 N   0  0  0  0  0  0  0  0  0  0  0  0
   -0.5169   14.7730   -0.3274 N   0  0  0  0  0  0  0  0  0  0  0  0
   -3.5080   14.7444   -2.5646 N   0  0  2  0  0  0  0  0  0  0  0  0
   -2.9496   15.3984   -4.9886 O   0  0  0  0  0  0  0  0  0  0  0  0
   -5.2895   14.6356   -4.4167 O   0  0  0  0  0  0  0  0  0  0  0  0
   -3.8566   14.5653   -4.2305 S   0  0  0  0  0  0  0  0  0  0  0  0
   -3.2627   14.9433    2.3109 H   0  0  0  0  0  0  0  0  0  0  0  0
    0.7289   14.9713    1.3140 H   0  0  0  0  0  0  0  0  0  0  0  0
   -4.8938   14.1018    0.4735 H   0  0  0  0  0  0  0  0  0  0  0  0
   -4.6881   15.7053   -0.2527 H   0  0  0  0  0  0  0  0  0  0  0  0
   -1.4618   15.2426   -2.7317 H   0  0  0  0  0  0  0  0  0  0  0  0
   -1.7838   13.5087   -2.4685 H   0  0  0  0  0  0  0  0  0  0  0  0
   -4.2203   12.9868   -1.6058 H   0  0  0  0  0  0  0  0  0  0  0  0
   -5.4779   14.1881   -1.9709 H   0  0  0  0  0  0  0  0  0  0  0  0
   -3.5231   12.5983   -5.4876 H   0  0  0  0  0  0  0  0  0  0  0  0
   -3.9622   12.2526   -3.7842 H   0  0  0  0  0  0  0  0  0  0  0  0
   -2.3017   12.7930   -4.1894 H   0  0  0  0  0  0  0  0  0  0  0  0
  1  3  1  0  0  0  0
  1  9  2  0  0  0  0
  2  9  1  0  0  0  0
  2 10  2  0  0  0  0
  3  4  2  0  0  0  0
  3  5  1  0  0  0  0
  4  6  1  0  0  0  0
  4 10  1  0  0  0  0
  5  7  1  0  0  0  0
  6 11  1  0  0  0  0
  7 11  1  0  0  0  0
  8 14  1  0  0  0  0
 11 14  1  0  0  0  0
 12 14  2  0  0  0  0
 13 14  2  0  0  0  0
  1 15  1  0  0  0  0
  2 16  1  0  0  0  0
  5 17  1  0  0  0  0
  5 18  1  0  0  0  0
  6 19  1  0  0  0  0
  6 20  1  0  0  0  0
  7 21  1  0  0  0  0
  7 22  1  0  0  0  0
  8 23  1  0  0  0  0
  8 24  1  0  0  0  0
  8 25  1  0  0  0  0
M  END
> <HYBRID receptor title>
5S18(A) > WOY(A-201)

> <HYBRID receptor filename>
data/docking/5s18.oedu

> <HYBRID Chemgauss4 score>
-6.078514

> <HYBRID receptor title>
5S18(A) > WOY(A-201)

> <HYBRID receptor filename>
data/docking/5s18.oedu

> <Dock Type>
Hybrid

$$$$
MOL0064
  -OEChem-07032400353D

 24 25  0     1  0  0  0  0  0999 V2000
   -1.1585   14.9694   -0.9715 C   0  0  0  0  0  0  0  0  0  0  0  0
   -0.2024   14.9491    1.0823 C   0  0  0  0  0  0  0  0  0  0  0  0
   -2.4296   14.9082   -0.4228 C   0  0  0  0  0  0  0  0  0  0  0  0
   -2.4929   14.8330    0.9707 C   0  0  0  0  0  0  0  0  0  0  0  0
   -4.8535   15.0711   -0.5649 C   0  0  0  0  0  0  0  0  0  0  0  0
   -4.8978   14.3585    0.7928 C   0  0  2  0  0  0  0  0  0  0  0  0
   -7.4120   14.3230    0.7823 C   0  0  0  0  0  0  0  0  0  0  0  0
   -6.1682   14.7193    1.5558 C   0  0  0  0  0  0  0  0  0  0  0  0
   -0.0223   14.9953   -0.2470 N   0  0  0  0  0  0  0  0  0  0  0  0
   -1.3770   14.8696    1.7372 N   0  0  0  0  0  0  0  0  0  0  0  0
   -3.5675   14.8763   -1.2072 N   0  0  0  0  0  0  0  0  0  0  0  0
   -3.7351   14.7210    1.5908 N   0  0  0  0  0  0  0  0  0  0  0  0
   -1.0113   15.0081   -2.0468 H   0  0  0  0  0  0  0  0  0  0  0  0
    0.6906   14.9761    1.6944 H   0  0  0  0  0  0  0  0  0  0  0  0
   -5.6438   14.6862   -1.2192 H   0  0  0  0  0  0  0  0  0  0  0  0
   -5.0329   16.1468   -0.4426 H   0  0  0  0  0  0  0  0  0  0  0  0
   -4.8861   13.2729    0.6298 H   0  0  0  0  0  0  0  0  0  0  0  0
   -7.4240   13.2469    0.5805 H   0  0  0  0  0  0  0  0  0  0  0  0
   -7.4419   14.8496   -0.1765 H   0  0  0  0  0  0  0  0  0  0  0  0
   -8.3192   14.5781    1.3391 H   0  0  0  0  0  0  0  0  0  0  0  0
   -6.1794   15.7962    1.7447 H   0  0  0  0  0  0  0  0  0  0  0  0
   -6.1603   14.2137    2.5258 H   0  0  0  0  0  0  0  0  0  0  0  0
   -3.4860   15.0134   -2.2073 H   0  0  0  0  0  0  0  0  0  0  0  0
   -3.7570   14.6319    2.5994 H   0  0  0  0  0  0  0  0  0  0  0  0
  1  3  1  0  0  0  0
  1  9  2  0  0  0  0
  2  9  1  0  0  0  0
  2 10  2  0  0  0  0
  3  4  2  0  0  0  0
  3 11  1  0  0  0  0
  4 10  1  0  0  0  0
  4 12  1  0  0  0  0
  5  6  1  0  0  0  0
  5 11  1  0  0  0  0
  6  8  1  0  0  0  0
  6 12  1  0  0  0  0
  7  8  1  0  0  0  0
  1 13  1  0  0  0  0
  2 14  1  0  0  0  0
  5 15  1  0  0  0  0
  5 16  1  0  0  0  0
  6 17  1  0  0  0  0
  7 18  1  0  0  0  0
  7 19  1  0  0  0  0
  7 20  1  0  0  0  0
  8 21  1  0  0  0  0
  8 22  1  0  0  0  0
 11 23  1  0  0  0  0
 12 24  1  0  0  0  0
M  END
> <HYBRID receptor title>
5S18(A) > WOY(A-201)

> <HYBRID receptor filename>
data/docking/5s18.oedu

> <HYBRID Chemgauss4 score>
-6.063370

> <HYBRID receptor title>
5S18(A) > WOY(A-201)

> <HYBRID receptor filename>
data/docking/5s18.oedu

> <Dock Type>
Hybrid

$$$$
MOL0094
  -OEChem-07032400353D

 20 21  0     1  0  0  0  0  0999 V2000
   -0.7895   14.6840   -0.6420 C   0  0  0  0  0  0  0  0  0  0  0  0
    0.2131   14.8778    1.4023 C   0  0  0  0  0  0  0  0  0  0  0  0
   -2.0137   14.8512   -0.0473 C   0  0  0  0  0  0  0  0  0  0  0  0
   -2.0433   15.0242    1.3283 C   0  0  0  0  0  0  0  0  0  0  0  0
   -4.2174   15.3284    0.6149 C   0  0  0  0  0  0  0  0  0  0  0  0
   -3.3987   14.8339   -0.6066 C   0  0  1  0  0  0  0  0  0  0  0  0
   -3.5913   15.7120   -1.8329 C   0  0  0  0  0  0  0  0  0  0  0  0
    0.3570   14.6987    0.0683 N   0  0  0  0  0  0  0  0  0  0  0  0
   -0.9373   15.0418    2.0905 N   0  0  0  0  0  0  0  0  0  0  0  0
   -3.3633   15.1694    1.7802 N   0  0  0  0  0  0  0  0  0  0  0  0
   -3.0882   15.0270   -2.9678 O   0  0  0  0  0  0  0  0  0  0  0  0
   -0.6810   14.5266   -1.7082 H   0  0  0  0  0  0  0  0  0  0  0  0
    1.1269   14.8899    1.9847 H   0  0  0  0  0  0  0  0  0  0  0  0
   -4.4893   16.3861    0.5127 H   0  0  0  0  0  0  0  0  0  0  0  0
   -5.1432   14.7543    0.7262 H   0  0  0  0  0  0  0  0  0  0  0  0
   -3.6730   13.7969   -0.8364 H   0  0  0  0  0  0  0  0  0  0  0  0
   -3.0485   16.6515   -1.7133 H   0  0  0  0  0  0  0  0  0  0  0  0
   -4.6524   15.9217   -1.9845 H   0  0  0  0  0  0  0  0  0  0  0  0
   -3.6160   15.3784    2.7335 H   0  0  0  0  0  0  0  0  0  0  0  0
   -3.2240   15.6096   -3.7336 H   0  0  0  0  0  0  0  0  0  0  0  0
  1  3  1  0  0  0  0
  1  8  2  0  0  0  0
  2  8  1  0  0  0  0
  2  9  2  0  0  0  0
  3  4  2  0  0  0  0
  3  6  1  0  0  0  0
  4  9  1  0  0  0  0
  4 10  1  0  0  0  0
  5  6  1  0  0  0  0
  5 10  1  0  0  0  0
  6  7  1  0  0  0  0
  7 11  1  0  0  0  0
  1 12  1  0  0  0  0
  2 13  1  0  0  0  0
  5 14  1  0  0  0  0
  5 15  1  0  0  0  0
  6 16  1  0  0  0  0
  7 17  1  0  0  0  0
  7 18  1  0  0  0  0
 10 19  1  0  0  0  0
 11 20  1  0  0  0  0
M  END
> <HYBRID receptor title>
5S18(A) > WOY(A-201)

> <HYBRID receptor filename>
data/docking/5s18.oedu

> <HYBRID Chemgauss4 score>
-6.055613

> <HYBRID receptor title>
5S18(A) > WOY(A-201)

> <HYBRID receptor filename>
data/docking/5s18.oedu

> <Dock Type>
Hybrid

$$$$
MOL0176
  -OEChem-07032400353D

 18 19  0     0  0  0  0  0  0999 V2000
   -4.5355   15.1812   -0.0448 C   0  0  0  0  0  0  0  0  0  0  0  0
   -2.8532   15.0266    1.7385 C   0  0  0  0  0  0  0  0  0  0  0  0
   -3.7606   14.9090   -2.2543 C   0  0  0  0  0  0  0  0  0  0  0  0
   -0.6981   14.6415    1.2007 C   0  0  0  0  0  0  0  0  0  0  0  0
   -3.2156   14.9963    0.3938 C   0  0  0  0  0  0  0  0  0  0  0  0
   -4.8167   15.1371   -1.3983 C   0  0  0  0  0  0  0  0  0  0  0  0
   -2.1976   14.7694   -0.5395 C   0  0  0  0  0  0  0  0  0  0  0  0
   -6.1996   15.3273   -1.9081 C   0  0  0  0  0  0  0  0  0  0  0  0
   -1.5943   14.8515    2.1754 N   0  0  0  0  0  0  0  0  0  0  0  0
   -2.4800   14.7283   -1.8488 N   0  0  0  0  0  0  0  0  0  0  0  0
   -0.9374   14.5922   -0.1272 N   0  0  0  0  0  0  0  0  0  0  0  0
   -5.3335   15.3581    0.6728 H   0  0  0  0  0  0  0  0  0  0  0  0
   -3.5870   15.1974    2.5206 H   0  0  0  0  0  0  0  0  0  0  0  0
   -3.9047   14.8609   -3.3295 H   0  0  0  0  0  0  0  0  0  0  0  0
    0.3298   14.4952    1.5093 H   0  0  0  0  0  0  0  0  0  0  0  0
   -6.4127   16.3866   -2.1134 H   0  0  0  0  0  0  0  0  0  0  0  0
   -6.9492   14.9931   -1.1757 H   0  0  0  0  0  0  0  0  0  0  0  0
   -6.3511   14.7606   -2.8372 H   0  0  0  0  0  0  0  0  0  0  0  0
  1  5  1  0  0  0  0
  1  6  2  0  0  0  0
  2  5  1  0  0  0  0
  2  9  2  0  0  0  0
  3  6  1  0  0  0  0
  3 10  2  0  0  0  0
  4  9  1  0  0  0  0
  4 11  2  0  0  0  0
  5  7  2  0  0  0  0
  6  8  1  0  0  0  0
  7 10  1  0  0  0  0
  7 11  1  0  0  0  0
  1 12  1  0  0  0  0
  2 13  1  0  0  0  0
  3 14  1  0  0  0  0
  4 15  1  0  0  0  0
  8 16  1  0  0  0  0
  8 17  1  0  0  0  0
  8 18  1  0  0  0  0
M  END
> <HYBRID receptor title>
5S18(A) > WOY(A-201)

> <HYBRID receptor filename>
data/docking/5s18.oedu

> <HYBRID Chemgauss4 score>
-6.044403

> <HYBRID receptor title>
5S18(A) > WOY(A-201)

> <HYBRID receptor filename>
data/docking/5s18.oedu

> <Dock Type>
Hybrid

$$$$
MOL0060
  -OEChem-07032400353D

 20 21  0     0  0  0  0  0  0999 V2000
   -2.6319   14.6993   -1.2580 C   0  0  0  0  0  0  0  0  0  0  0  0
   -3.5296   15.0584   -0.2876 C   0  0  0  0  0  0  0  0  0  0  0  0
   -3.0619   15.2007    1.0080 C   0  0  0  0  0  0  0  0  0  0  0  0
   -0.9799   14.6433    0.3200 C   0  0  0  0  0  0  0  0  0  0  0  0
   -4.9819   15.3686   -0.3688 C   0  0  0  0  0  0  0  0  0  0  0  0
   -5.3468   15.5429    1.1218 C   0  0  0  0  0  0  0  0  0  0  0  0
    0.7190   14.5937    1.9839 C   0  0  0  0  0  0  0  0  0  0  0  0
   -1.3311   14.4789   -0.9778 N   0  0  0  0  0  0  0  0  0  0  0  0
   -1.7785   14.9992    1.3491 N   0  0  0  0  0  0  0  0  0  0  0  0
   -4.1003   15.5789    1.8677 N   0  0  0  0  0  0  0  0  0  0  0  0
    0.3439   14.4230    0.6247 O   0  0  0  0  0  0  0  0  0  0  0  0
   -2.9205   14.5767   -2.2948 H   0  0  0  0  0  0  0  0  0  0  0  0
   -5.1450   16.2976   -0.9240 H   0  0  0  0  0  0  0  0  0  0  0  0
   -5.5474   14.5501   -0.8232 H   0  0  0  0  0  0  0  0  0  0  0  0
   -5.9286   16.4565    1.2820 H   0  0  0  0  0  0  0  0  0  0  0  0
   -5.9530   14.6957    1.4633 H   0  0  0  0  0  0  0  0  0  0  0  0
    1.7873   14.3914    2.0965 H   0  0  0  0  0  0  0  0  0  0  0  0
    0.5119   15.6239    2.2834 H   0  0  0  0  0  0  0  0  0  0  0  0
    0.1403   13.9114    2.6108 H   0  0  0  0  0  0  0  0  0  0  0  0
   -4.0062   15.6981    2.8642 H   0  0  0  0  0  0  0  0  0  0  0  0
  1  2  1  0  0  0  0
  1  8  2  0  0  0  0
  2  3  2  0  0  0  0
  2  5  1  0  0  0  0
  3  9  1  0  0  0  0
  3 10  1  0  0  0  0
  4  8  1  0  0  0  0
  4  9  2  0  0  0  0
  4 11  1  0  0  0  0
  5  6  1  0  0  0  0
  6 10  1  0  0  0  0
  7 11  1  0  0  0  0
  1 12  1  0  0  0  0
  5 13  1  0  0  0  0
  5 14  1  0  0  0  0
  6 15  1  0  0  0  0
  6 16  1  0  0  0  0
  7 17  1  0  0  0  0
  7 18  1  0  0  0  0
  7 19  1  0  0  0  0
 10 20  1  0  0  0  0
M  END
> <HYBRID receptor title>
5S18(A) > WOY(A-201)

> <HYBRID receptor filename>
data/docking/5s18.oedu

> <HYBRID Chemgauss4 score>
-6.043288

> <HYBRID receptor title>
5S18(A) > WOY(A-201)

> <HYBRID receptor filename>
data/docking/5s18.oedu

> <Dock Type>
Hybrid

$$$$
MOL0190
  -OEChem-07032400353D

 18 19  0     0  0  0  0  0  0999 V2000
   -3.4672   14.6780    1.3184 C   0  0  0  0  0  0  0  0  0  0  0  0
   -0.7376   14.5706   -1.0863 C   0  0  0  0  0  0  0  0  0  0  0  0
   -3.1725   14.2939   -1.3601 C   0  0  0  0  0  0  0  0  0  0  0  0
    0.0912   14.9694    0.9824 C   0  0  0  0  0  0  0  0  0  0  0  0
   -2.0348   14.5234   -0.5815 C   0  0  0  0  0  0  0  0  0  0  0  0
   -2.1804   14.7216    0.7965 C   0  0  0  0  0  0  0  0  0  0  0  0
   -4.5406   14.4435    0.4670 C   0  0  0  0  0  0  0  0  0  0  0  0
   -5.9216   14.3971    1.0318 C   0  0  0  0  0  0  0  0  0  0  0  0
    0.3500   14.7930   -0.3249 N   0  0  0  0  0  0  0  0  0  0  0  0
   -4.4262   14.2496   -0.8634 N   0  0  0  0  0  0  0  0  0  0  0  0
   -1.1152   14.9460    1.5861 N   0  0  0  0  0  0  0  0  0  0  0  0
   -3.6318   14.8261    2.3826 H   0  0  0  0  0  0  0  0  0  0  0  0
   -0.5346   14.4275   -2.1432 H   0  0  0  0  0  0  0  0  0  0  0  0
   -3.1011   14.1357   -2.4321 H   0  0  0  0  0  0  0  0  0  0  0  0
    0.9453   15.1506    1.6236 H   0  0  0  0  0  0  0  0  0  0  0  0
   -6.3865   15.3912    1.0276 H   0  0  0  0  0  0  0  0  0  0  0  0
   -5.9127   14.0536    2.0742 H   0  0  0  0  0  0  0  0  0  0  0  0
   -6.5498   13.7160    0.4456 H   0  0  0  0  0  0  0  0  0  0  0  0
  1  6  2  0  0  0  0
  1  7  1  0  0  0  0
  2  5  1  0  0  0  0
  2  9  2  0  0  0  0
  3  5  2  0  0  0  0
  3 10  1  0  0  0  0
  4  9  1  0  0  0  0
  4 11  2  0  0  0  0
  5  6  1  0  0  0  0
  6 11  1  0  0  0  0
  7  8  1  0  0  0  0
  7 10  2  0  0  0  0
  1 12  1  0  0  0  0
  2 13  1  0  0  0  0
  3 14  1  0  0  0  0
  4 15  1  0  0  0  0
  8 16  1  0  0  0  0
  8 17  1  0  0  0  0
  8 18  1  0  0  0  0
M  END
> <HYBRID receptor title>
5S18(A) > WOY(A-201)

> <HYBRID receptor filename>
data/docking/5s18.oedu

> <HYBRID Chemgauss4 score>
-6.039917

> <HYBRID receptor title>
5S18(A) > WOY(A-201)

> <HYBRID receptor filename>
data/docking/5s18.oedu

> <Dock Type>
Hybrid

$$$$
MOL0021
  -OEChem-07032400353D

 16 17  0     0  0  0  0  0  0999 V2000
   -2.6989   14.5666   -1.2807 C   0  0  0  0  0  0  0  0  0  0  0  0
   -3.6495   14.7705   -0.3156 C   0  0  0  0  0  0  0  0  0  0  0  0
   -3.2190   15.0196    0.9766 C   0  0  0  0  0  0  0  0  0  0  0  0
   -1.0683   14.8449    0.2962 C   0  0  0  0  0  0  0  0  0  0  0  0
   -5.1339   14.8053   -0.4006 C   0  0  0  0  0  0  0  0  0  0  0  0
   -5.5280   14.9353    1.0871 C   0  0  0  0  0  0  0  0  0  0  0  0
   -1.3803   14.5955   -0.9981 N   0  0  0  0  0  0  0  0  0  0  0  0
   -1.9212   15.0651    1.3197 N   0  0  0  0  0  0  0  0  0  0  0  0
   -4.3112   15.2144    1.8307 N   0  0  0  0  0  0  0  0  0  0  0  0
    0.5988   14.8872    0.6767 Cl  0  0  0  0  0  0  0  0  0  0  0  0
   -2.9578   14.3748   -2.3147 H   0  0  0  0  0  0  0  0  0  0  0  0
   -5.4649   15.6781   -0.9721 H   0  0  0  0  0  0  0  0  0  0  0  0
   -5.5376   13.8886   -0.8400 H   0  0  0  0  0  0  0  0  0  0  0  0
   -6.2688   15.7286    1.2317 H   0  0  0  0  0  0  0  0  0  0  0  0
   -5.9680   13.9967    1.4441 H   0  0  0  0  0  0  0  0  0  0  0  0
   -4.2429   15.3664    2.8248 H   0  0  0  0  0  0  0  0  0  0  0  0
  1  2  1  0  0  0  0
  1  7  2  0  0  0  0
  2  3  2  0  0  0  0
  2  5  1  0  0  0  0
  3  8  1  0  0  0  0
  3  9  1  0  0  0  0
  4  7  1  0  0  0  0
  4  8  2  0  0  0  0
  4 10  1  0  0  0  0
  5  6  1  0  0  0  0
  6  9  1  0  0  0  0
  1 11  1  0  0  0  0
  5 12  1  0  0  0  0
  5 13  1  0  0  0  0
  6 14  1  0  0  0  0
  6 15  1  0  0  0  0
  9 16  1  0  0  0  0
M  END
> <HYBRID receptor title>
5S18(A) > WOY(A-201)

> <HYBRID receptor filename>
data/docking/5s18.oedu

> <HYBRID Chemgauss4 score>
-6.000816

> <HYBRID receptor title>
5S18(A) > WOY(A-201)

> <HYBRID receptor filename>
data/docking/5s18.oedu

> <Dock Type>
Hybrid

$$$$
MOL0014
  -OEChem-07032400353D

 17 18  0     0  0  0  0  0  0999 V2000
   -0.7815   14.7809   -0.9582 C   0  0  0  0  0  0  0  0  0  0  0  0
    0.2752   14.8501    1.0462 C   0  0  0  0  0  0  0  0  0  0  0  0
   -2.0044   14.9232   -0.3300 C   0  0  0  0  0  0  0  0  0  0  0  0
   -2.0153   15.0239    1.0522 C   0  0  0  0  0  0  0  0  0  0  0  0
   -4.4297   15.1120   -0.4559 C   0  0  0  0  0  0  0  0  0  0  0  0
   -4.4221   15.5240    1.0020 C   0  0  0  0  0  0  0  0  0  0  0  0
    0.3868   14.7470   -0.2903 N   0  0  0  0  0  0  0  0  0  0  0  0
   -0.8633   14.9814    1.7602 N   0  0  0  0  0  0  0  0  0  0  0  0
   -3.2014   14.9200   -1.0516 N   0  0  0  0  0  0  0  0  0  0  0  0
   -3.2288   15.1228    1.7139 N   0  0  0  0  0  0  0  0  0  0  0  0
   -5.4877   15.0360   -1.0822 O   0  0  0  0  0  0  0  0  0  0  0  0
   -0.6993   14.6860   -2.0359 H   0  0  0  0  0  0  0  0  0  0  0  0
    1.1981   14.8233    1.6126 H   0  0  0  0  0  0  0  0  0  0  0  0
   -4.5204   16.6146    1.0398 H   0  0  0  0  0  0  0  0  0  0  0  0
   -5.2956   15.0833    1.4933 H   0  0  0  0  0  0  0  0  0  0  0  0
   -3.1647   14.7702   -2.0557 H   0  0  0  0  0  0  0  0  0  0  0  0
   -3.2103   15.1893    2.7246 H   0  0  0  0  0  0  0  0  0  0  0  0
  1  3  1  0  0  0  0
  1  7  2  0  0  0  0
  2  7  1  0  0  0  0
  2  8  2  0  0  0  0
  3  4  2  0  0  0  0
  3  9  1  0  0  0  0
  4  8  1  0  0  0  0
  4 10  1  0  0  0  0
  5  6  1  0  0  0  0
  5  9  1  0  0  0  0
  5 11  2  0  0  0  0
  6 10  1  0  0  0  0
  1 12  1  0  0  0  0
  2 13  1  0  0  0  0
  6 14  1  0  0  0  0
  6 15  1  0  0  0  0
  9 16  1  0  0  0  0
 10 17  1  0  0  0  0
M  END
> <HYBRID receptor title>
5S18(A) > WOY(A-201)

> <HYBRID receptor filename>
data/docking/5s18.oedu

> <HYBRID Chemgauss4 score>
-5.996952

> <HYBRID receptor title>
5S18(A) > WOY(A-201)

> <HYBRID receptor filename>
data/docking/5s18.oedu

> <Dock Type>
Hybrid

$$$$
MOL0042
  -OEChem-07032400353D

 24 25  0     1  0  0  0  0  0999 V2000
   -0.7030   14.6831   -0.7131 C   0  0  0  0  0  0  0  0  0  0  0  0
    0.1938   14.8016    1.3638 C   0  0  0  0  0  0  0  0  0  0  0  0
   -1.9748   14.9301   -0.2200 C   0  0  0  0  0  0  0  0  0  0  0  0
   -2.0659   15.1477    1.1568 C   0  0  0  0  0  0  0  0  0  0  0  0
   -4.3850   15.8697    0.8441 C   0  0  0  0  0  0  0  0  0  0  0  0
   -4.4038   15.0325   -0.4410 C   0  0  1  0  0  0  0  0  0  0  0  0
   -5.4428   14.7707   -2.7151 C   0  0  0  0  0  0  0  0  0  0  0  0
   -5.4088   15.5932   -1.4404 C   0  0  0  0  0  0  0  0  0  0  0  0
    0.4045   14.6080    0.0518 N   0  0  0  0  0  0  0  0  0  0  0  0
   -0.9814   15.0671    1.9648 N   0  0  0  0  0  0  0  0  0  0  0  0
   -3.0804   15.0061   -1.0477 N   0  0  0  0  0  0  0  0  0  0  0  0
   -3.3058   15.4475    1.7153 N   0  0  0  0  0  0  0  0  0  0  0  0
   -0.5320   14.5252   -1.7739 H   0  0  0  0  0  0  0  0  0  0  0  0
    1.0621   14.7402    2.0083 H   0  0  0  0  0  0  0  0  0  0  0  0
   -4.2618   16.9349    0.6106 H   0  0  0  0  0  0  0  0  0  0  0  0
   -5.3374   15.7657    1.3759 H   0  0  0  0  0  0  0  0  0  0  0  0
   -4.6952   14.0033   -0.1938 H   0  0  0  0  0  0  0  0  0  0  0  0
   -5.7084   13.7295   -2.5048 H   0  0  0  0  0  0  0  0  0  0  0  0
   -4.4596   14.7808   -3.1954 H   0  0  0  0  0  0  0  0  0  0  0  0
   -6.1722   15.1747   -3.4243 H   0  0  0  0  0  0  0  0  0  0  0  0
   -5.1418   16.6271   -1.6763 H   0  0  0  0  0  0  0  0  0  0  0  0
   -6.4024   15.6050   -0.9826 H   0  0  0  0  0  0  0  0  0  0  0  0
   -2.9829   14.7389   -2.0203 H   0  0  0  0  0  0  0  0  0  0  0  0
   -3.3559   15.6250    2.7107 H   0  0  0  0  0  0  0  0  0  0  0  0
  1  3  1  0  0  0  0
  1  9  2  0  0  0  0
  2  9  1  0  0  0  0
  2 10  2  0  0  0  0
  3  4  2  0  0  0  0
  3 11  1  0  0  0  0
  4 10  1  0  0  0  0
  4 12  1  0  0  0  0
  5  6  1  0  0  0  0
  5 12  1  0  0  0  0
  6  8  1  0  0  0  0
  6 11  1  0  0  0  0
  7  8  1  0  0  0  0
  1 13  1  0  0  0  0
  2 14  1  0  0  0  0
  5 15  1  0  0  0  0
  5 16  1  0  0  0  0
  6 17  1  0  0  0  0
  7 18  1  0  0  0  0
  7 19  1  0  0  0  0
  7 20  1  0  0  0  0
  8 21  1  0  0  0  0
  8 22  1  0  0  0  0
 11 23  1  0  0  0  0
 12 24  1  0  0  0  0
M  END
> <HYBRID receptor title>
5S18(A) > WOY(A-201)

> <HYBRID receptor filename>
data/docking/5s18.oedu

> <HYBRID Chemgauss4 score>
-5.982360

> <HYBRID receptor title>
5S18(A) > WOY(A-201)

> <HYBRID receptor filename>
data/docking/5s18.oedu

> <Dock Type>
Hybrid

$$$$
MOL0010
  -OEChem-07032400353D

 17 18  0     0  0  0  0  0  0999 V2000
   -2.7822   15.1879    1.5604 C   0  0  0  0  0  0  0  0  0  0  0  0
   -0.6064   14.8390    0.9305 C   0  0  0  0  0  0  0  0  0  0  0  0
   -3.1583   15.1735    0.2445 C   0  0  0  0  0  0  0  0  0  0  0  0
   -2.1546   14.9882   -0.6899 C   0  0  0  0  0  0  0  0  0  0  0  0
   -4.4848   15.3733   -0.3961 C   0  0  0  0  0  0  0  0  0  0  0  0
   -2.7106   15.0524   -2.0831 C   0  0  0  0  0  0  0  0  0  0  0  0
   -4.2075   14.8313   -1.8087 C   0  0  0  0  0  0  0  0  0  0  0  0
   -1.4965   15.0149    1.9385 N   0  0  0  0  0  0  0  0  0  0  0  0
   -0.8586   14.8195   -0.3950 N   0  0  0  0  0  0  0  0  0  0  0  0
   -3.4938   15.3397    2.3633 H   0  0  0  0  0  0  0  0  0  0  0  0
    0.4271   14.7014    1.2251 H   0  0  0  0  0  0  0  0  0  0  0  0
   -5.2816   14.8109    0.0983 H   0  0  0  0  0  0  0  0  0  0  0  0
   -4.7376   16.4381   -0.4242 H   0  0  0  0  0  0  0  0  0  0  0  0
   -2.5278   16.0430   -2.5117 H   0  0  0  0  0  0  0  0  0  0  0  0
   -2.2952   14.2786   -2.7339 H   0  0  0  0  0  0  0  0  0  0  0  0
   -4.4194   13.7530   -1.8272 H   0  0  0  0  0  0  0  0  0  0  0  0
   -4.8444   15.2970   -2.5673 H   0  0  0  0  0  0  0  0  0  0  0  0
  1  3  1  0  0  0  0
  1  8  2  0  0  0  0
  2  8  1  0  0  0  0
  2  9  2  0  0  0  0
  3  4  2  0  0  0  0
  3  5  1  0  0  0  0
  4  6  1  0  0  0  0
  4  9  1  0  0  0  0
  5  7  1  0  0  0  0
  6  7  1  0  0  0  0
  1 10  1  0  0  0  0
  2 11  1  0  0  0  0
  5 12  1  0  0  0  0
  5 13  1  0  0  0  0
  6 14  1  0  0  0  0
  6 15  1  0  0  0  0
  7 16  1  0  0  0  0
  7 17  1  0  0  0  0
M  END
> <HYBRID receptor title>
5S18(A) > WOY(A-201)

> <HYBRID receptor filename>
data/docking/5s18.oedu

> <HYBRID Chemgauss4 score>
-5.959810

> <HYBRID receptor title>
5S18(A) > WOY(A-201)

> <HYBRID receptor filename>
data/docking/5s18.oedu

> <Dock Type>
Hybrid

$$$$
MOL0023
  -OEChem-07032400353D

 19 20  0     1  0  0  0  0  0999 V2000
   -1.5756   14.6341   -0.8947 C   0  0  0  0  0  0  0  0  0  0  0  0
   -0.2819   14.8080    0.9802 C   0  0  0  0  0  0  0  0  0  0  0  0
   -2.6887   14.8848   -0.1354 C   0  0  0  0  0  0  0  0  0  0  0  0
   -2.5141   15.0913    1.2216 C   0  0  0  0  0  0  0  0  0  0  0  0
   -4.1260   14.9623   -0.5128 C   0  0  0  0  0  0  0  0  0  0  0  0
   -4.7928   15.3445    0.8368 C   0  0  2  0  0  0  0  0  0  0  0  0
   -5.4360   16.7257    0.7874 C   0  0  0  0  0  0  0  0  0  0  0  0
   -0.3406   14.5912   -0.3549 N   0  0  0  0  0  0  0  0  0  0  0  0
   -1.3110   15.0592    1.8183 N   0  0  0  0  0  0  0  0  0  0  0  0
   -3.7423   15.3305    1.8476 N   0  0  0  0  0  0  0  0  0  0  0  0
   -1.6325   14.4576   -1.9619 H   0  0  0  0  0  0  0  0  0  0  0  0
    0.7046   14.7758    1.4273 H   0  0  0  0  0  0  0  0  0  0  0  0
   -4.2915   15.7119   -1.2926 H   0  0  0  0  0  0  0  0  0  0  0  0
   -4.4775   13.9828   -0.8534 H   0  0  0  0  0  0  0  0  0  0  0  0
   -5.5597   14.6040    1.0925 H   0  0  0  0  0  0  0  0  0  0  0  0
   -4.6875   17.4759    0.5342 H   0  0  0  0  0  0  0  0  0  0  0  0
   -5.8685   16.9696    1.7572 H   0  0  0  0  0  0  0  0  0  0  0  0
   -6.2239   16.7429    0.0338 H   0  0  0  0  0  0  0  0  0  0  0  0
   -3.8591   15.5265    2.8294 H   0  0  0  0  0  0  0  0  0  0  0  0
  1  3  1  0  0  0  0
  1  8  2  0  0  0  0
  2  8  1  0  0  0  0
  2  9  2  0  0  0  0
  3  4  2  0  0  0  0
  3  5  1  0  0  0  0
  4  9  1  0  0  0  0
  4 10  1  0  0  0  0
  5  6  1  0  0  0  0
  6  7  1  0  0  0  0
  6 10  1  0  0  0  0
  1 11  1  0  0  0  0
  2 12  1  0  0  0  0
  5 13  1  0  0  0  0
  5 14  1  0  0  0  0
  6 15  1  0  0  0  0
  7 16  1  0  0  0  0
  7 17  1  0  0  0  0
  7 18  1  0  0  0  0
 10 19  1  0  0  0  0
M  END
> <HYBRID receptor title>
5S18(A) > WOY(A-201)

> <HYBRID receptor filename>
data/docking/5s18.oedu

> <HYBRID Chemgauss4 score>
-5.958563

> <HYBRID receptor title>
5S18(A) > WOY(A-201)

> <HYBRID receptor filename>
data/docking/5s18.oedu

> <Dock Type>
Hybrid

$$$$
MOL0031
  -OEChem-07032400353D

 22 23  0     1  0  0  0  0  0999 V2000
   -3.1068   15.0082    1.3929 C   0  0  0  0  0  0  0  0  0  0  0  0
   -0.9945   14.7679    0.6013 C   0  0  0  0  0  0  0  0  0  0  0  0
   -3.6373   14.8193    0.1275 C   0  0  0  0  0  0  0  0  0  0  0  0
   -2.7172   14.6290   -0.9001 C   0  0  0  0  0  0  0  0  0  0  0  0
   -5.1112   14.8760   -0.1332 C   0  0  0  0  0  0  0  0  0  0  0  0
   -5.4766   14.2671   -1.4870 C   0  0  0  0  0  0  0  0  0  0  0  0
   -3.2053   14.3708   -2.3146 C   0  0  2  0  0  0  0  0  0  0  0  0
   -2.3394   15.0843   -3.3567 C   0  0  0  0  0  0  0  0  0  0  0  0
   -1.7870   14.9867    1.6650 N   0  0  0  0  0  0  0  0  0  0  0  0
   -1.3832   14.5798   -0.6743 N   0  0  0  0  0  0  0  0  0  0  0  0
   -4.5999   14.7983   -2.5297 N   0  0  0  0  0  0  0  0  0  0  0  0
   -3.7474   15.1860    2.2509 H   0  0  0  0  0  0  0  0  0  0  0  0
    0.0717   14.7386    0.7896 H   0  0  0  0  0  0  0  0  0  0  0  0
   -5.6532   14.3414    0.6556 H   0  0  0  0  0  0  0  0  0  0  0  0
   -5.4268   15.9266   -0.1039 H   0  0  0  0  0  0  0  0  0  0  0  0
   -5.4073   13.1723   -1.4535 H   0  0  0  0  0  0  0  0  0  0  0  0
   -6.5173   14.5145   -1.7236 H   0  0  0  0  0  0  0  0  0  0  0  0
   -3.1382   13.2890   -2.4904 H   0  0  0  0  0  0  0  0  0  0  0  0
   -2.3914   16.1590   -3.2006 H   0  0  0  0  0  0  0  0  0  0  0  0
   -2.6998   14.8476   -4.3548 H   0  0  0  0  0  0  0  0  0  0  0  0
   -1.3065   14.7563   -3.2602 H   0  0  0  0  0  0  0  0  0  0  0  0
   -4.9160   14.4678   -3.4412 H   0  0  0  0  0  0  0  0  0  0  0  0
  1  3  1  0  0  0  0
  1  9  2  0  0  0  0
  2  9  1  0  0  0  0
  2 10  2  0  0  0  0
  3  4  2  0  0  0  0
  3  5  1  0  0  0  0
  4  7  1  0  0  0  0
  4 10  1  0  0  0  0
  5  6  1  0  0  0  0
  6 11  1  0  0  0  0
  7  8  1  0  0  0  0
  7 11  1  0  0  0  0
  1 12  1  0  0  0  0
  2 13  1  0  0  0  0
  5 14  1  0  0  0  0
  5 15  1  0  0  0  0
  6 16  1  0  0  0  0
  6 17  1  0  0  0  0
  7 18  1  0  0  0  0
  8 19  1  0  0  0  0
  8 20  1  0  0  0  0
  8 21  1  0  0  0  0
 11 22  1  0  0  0  0
M  END
> <HYBRID receptor title>
5S18(A) > WOY(A-201)

> <HYBRID receptor filename>
data/docking/5s18.oedu

> <HYBRID Chemgauss4 score>
-5.945731

> <HYBRID receptor title>
5S18(A) > WOY(A-201)

> <HYBRID receptor filename>
data/docking/5s18.oedu

> <Dock Type>
Hybrid

$$$$
MOL0108
  -OEChem-07032400353D

 22 23  0     1  0  0  0  0  0999 V2000
   -2.4349   15.1772    1.4052 C   0  0  0  0  0  0  0  0  0  0  0  0
   -0.3081   14.5725    0.8849 C   0  0  0  0  0  0  0  0  0  0  0  0
   -2.8715   14.9227    0.1133 C   0  0  0  0  0  0  0  0  0  0  0  0
   -1.8783   14.5053   -0.7710 C   0  0  0  0  0  0  0  0  0  0  0  0
   -2.2240   14.2055   -2.2045 C   0  0  0  0  0  0  0  0  0  0  0  0
   -3.5319   14.8664   -2.6328 C   0  0  0  0  0  0  0  0  0  0  0  0
   -4.2900   15.1667   -0.3498 C   0  0  2  0  0  0  0  0  0  0  0  0
   -5.3406   14.6320    0.6293 C   0  0  0  0  0  0  0  0  0  0  0  0
   -1.1638   15.0056    1.8258 N   0  0  0  0  0  0  0  0  0  0  0  0
   -0.5907   14.3091   -0.4034 N   0  0  0  0  0  0  0  0  0  0  0  0
   -4.5795   14.5570   -1.6623 N   0  0  0  0  0  0  0  0  0  0  0  0
   -3.1081   15.5486    2.1707 H   0  0  0  0  0  0  0  0  0  0  0  0
    0.7184   14.4213    1.1953 H   0  0  0  0  0  0  0  0  0  0  0  0
   -1.4132   14.5465   -2.8585 H   0  0  0  0  0  0  0  0  0  0  0  0
   -2.3029   13.1166   -2.3145 H   0  0  0  0  0  0  0  0  0  0  0  0
   -3.4105   15.9525   -2.7318 H   0  0  0  0  0  0  0  0  0  0  0  0
   -3.8229   14.4842   -3.6173 H   0  0  0  0  0  0  0  0  0  0  0  0
   -4.4227   16.2532   -0.4398 H   0  0  0  0  0  0  0  0  0  0  0  0
   -5.2271   13.5562    0.7333 H   0  0  0  0  0  0  0  0  0  0  0  0
   -6.3356   14.8552    0.2531 H   0  0  0  0  0  0  0  0  0  0  0  0
   -5.2079   15.1043    1.6000 H   0  0  0  0  0  0  0  0  0  0  0  0
   -5.4753   14.9044   -2.0040 H   0  0  0  0  0  0  0  0  0  0  0  0
  1  3  1  0  0  0  0
  1  9  2  0  0  0  0
  2  9  1  0  0  0  0
  2 10  2  0  0  0  0
  3  4  2  0  0  0  0
  3  7  1  0  0  0  0
  4  5  1  0  0  0  0
  4 10  1  0  0  0  0
  5  6  1  0  0  0  0
  6 11  1  0  0  0  0
  7  8  1  0  0  0  0
  7 11  1  0  0  0  0
  1 12  1  0  0  0  0
  2 13  1  0  0  0  0
  5 14  1  0  0  0  0
  5 15  1  0  0  0  0
  6 16  1  0  0  0  0
  6 17  1  0  0  0  0
  7 18  1  0  0  0  0
  8 19  1  0  0  0  0
  8 20  1  0  0  0  0
  8 21  1  0  0  0  0
 11 22  1  0  0  0  0
M  END
> <HYBRID receptor title>
5S18(A) > WOY(A-201)

> <HYBRID receptor filename>
data/docking/5s18.oedu

> <HYBRID Chemgauss4 score>
-5.937456

> <HYBRID receptor title>
5S18(A) > WOY(A-201)

> <HYBRID receptor filename>
data/docking/5s18.oedu

> <Dock Type>
Hybrid

$$$$
MOL0188
  -OEChem-07032400353D

 21 22  0     0  0  0  0  0  0999 V2000
   -0.1687   15.1538    0.8498 C   0  0  0  0  0  0  0  0  0  0  0  0
   -2.5016   14.7450   -0.4204 C   0  0  0  0  0  0  0  0  0  0  0  0
   -1.2787   14.6271   -1.0728 C   0  0  0  0  0  0  0  0  0  0  0  0
   -2.4370   15.0653    0.9251 C   0  0  0  0  0  0  0  0  0  0  0  0
   -3.8004   14.4678   -1.1173 C   0  0  0  0  0  0  0  0  0  0  0  0
   -1.2451   14.3094   -2.5444 C   0  0  0  0  0  0  0  0  0  0  0  0
   -2.5621   13.7049   -3.0383 C   0  0  0  0  0  0  0  0  0  0  0  0
   -0.0939   14.8384   -0.4572 N   0  0  0  0  0  0  0  0  0  0  0  0
   -1.2848   15.2807    1.5912 N   0  0  0  0  0  0  0  0  0  0  0  0
   -3.7059   14.5020   -2.5837 N   0  0  0  0  0  0  0  0  0  0  0  0
   -3.6443   15.1874    1.6559 N   0  0  0  0  0  0  0  0  0  0  0  0
    0.7718   15.3235    1.3597 H   0  0  0  0  0  0  0  0  0  0  0  0
   -4.1771   13.4747   -0.8410 H   0  0  0  0  0  0  0  0  0  0  0  0
   -4.5490   15.2020   -0.7891 H   0  0  0  0  0  0  0  0  0  0  0  0
   -1.0277   15.2201   -3.1123 H   0  0  0  0  0  0  0  0  0  0  0  0
   -0.4252   13.6028   -2.7194 H   0  0  0  0  0  0  0  0  0  0  0  0
   -2.5704   13.6313   -4.1357 H   0  0  0  0  0  0  0  0  0  0  0  0
   -2.6607   12.6797   -2.6581 H   0  0  0  0  0  0  0  0  0  0  0  0
   -4.5604   14.1179   -2.9837 H   0  0  0  0  0  0  0  0  0  0  0  0
   -4.5110   15.0921    1.1726 H   0  0  0  0  0  0  0  0  0  0  0  0
   -3.6024   15.4696    2.6110 H   0  0  0  0  0  0  0  0  0  0  0  0
  1  8  1  0  0  0  0
  1  9  2  0  0  0  0
  2  3  1  0  0  0  0
  2  4  2  0  0  0  0
  2  5  1  0  0  0  0
  3  6  1  0  0  0  0
  3  8  2  0  0  0  0
  4  9  1  0  0  0  0
  4 11  1  0  0  0  0
  5 10  1  0  0  0  0
  6  7  1  0  0  0  0
  7 10  1  0  0  0  0
  1 12  1  0  0  0  0
  5 13  1  0  0  0  0
  5 14  1  0  0  0  0
  6 15  1  0  0  0  0
  6 16  1  0  0  0  0
  7 17  1  0  0  0  0
  7 18  1  0  0  0  0
 10 19  1  0  0  0  0
 11 20  1  0  0  0  0
 11 21  1  0  0  0  0
M  END
> <HYBRID receptor title>
5S18(A) > WOY(A-201)

> <HYBRID receptor filename>
data/docking/5s18.oedu

> <HYBRID Chemgauss4 score>
-5.928635

> <HYBRID receptor title>
5S18(A) > WOY(A-201)

> <HYBRID receptor filename>
data/docking/5s18.oedu

> <Dock Type>
Hybrid

$$$$
MOL0145
  -OEChem-07032400353D

 23 24  0     1  0  0  0  0  0999 V2000
   -2.5804   14.9033    1.2087 C   0  0  0  0  0  0  0  0  0  0  0  0
   -0.3400   14.7166    0.9059 C   0  0  0  0  0  0  0  0  0  0  0  0
   -2.8011   14.8654   -0.1582 C   0  0  0  0  0  0  0  0  0  0  0  0
   -1.6659   14.7751   -0.9594 C   0  0  0  0  0  0  0  0  0  0  0  0
   -4.1748   14.9757   -0.7451 C   0  0  0  0  0  0  0  0  0  0  0  0
   -4.2101   14.5286   -2.2064 C   0  0  0  0  0  0  0  0  0  0  0  0
   -1.8099   14.6861   -2.4683 C   0  0  2  0  0  0  0  0  0  0  0  0
   -0.7329   15.4977   -3.1934 C   0  0  0  0  0  0  0  0  0  0  0  0
   -1.3597   14.8294    1.7748 N   0  0  0  0  0  0  0  0  0  0  0  0
   -0.4204   14.6781   -0.4379 N   0  0  0  0  0  0  0  0  0  0  0  0
   -3.1206   15.1586   -2.9508 N   0  0  0  0  0  0  0  0  0  0  0  0
   -0.9299   15.3545   -4.5867 O   0  0  0  0  0  0  0  0  0  0  0  0
   -3.4042   14.9955    1.9094 H   0  0  0  0  0  0  0  0  0  0  0  0
    0.6537   14.6484    1.3314 H   0  0  0  0  0  0  0  0  0  0  0  0
   -4.8797   14.3652   -0.1687 H   0  0  0  0  0  0  0  0  0  0  0  0
   -4.4988   16.0215   -0.6712 H   0  0  0  0  0  0  0  0  0  0  0  0
   -4.1399   13.4359   -2.2817 H   0  0  0  0  0  0  0  0  0  0  0  0
   -5.1699   14.8184   -2.6481 H   0  0  0  0  0  0  0  0  0  0  0  0
   -1.6933   13.6299   -2.7453 H   0  0  0  0  0  0  0  0  0  0  0  0
    0.2523   15.1224   -2.9246 H   0  0  0  0  0  0  0  0  0  0  0  0
   -0.8185   16.5479   -2.9202 H   0  0  0  0  0  0  0  0  0  0  0  0
   -3.2133   14.9380   -3.9421 H   0  0  0  0  0  0  0  0  0  0  0  0
   -0.2380   15.8758   -5.0292 H   0  0  0  0  0  0  0  0  0  0  0  0
  1  3  1  0  0  0  0
  1  9  2  0  0  0  0
  2  9  1  0  0  0  0
  2 10  2  0  0  0  0
  3  4  2  0  0  0  0
  3  5  1  0  0  0  0
  4  7  1  0  0  0  0
  4 10  1  0  0  0  0
  5  6  1  0  0  0  0
  6 11  1  0  0  0  0
  7  8  1  0  0  0  0
  7 11  1  0  0  0  0
  8 12  1  0  0  0  0
  1 13  1  0  0  0  0
  2 14  1  0  0  0  0
  5 15  1  0  0  0  0
  5 16  1  0  0  0  0
  6 17  1  0  0  0  0
  6 18  1  0  0  0  0
  7 19  1  0  0  0  0
  8 20  1  0  0  0  0
  8 21  1  0  0  0  0
 11 22  1  0  0  0  0
 12 23  1  0  0  0  0
M  END
> <HYBRID receptor title>
5S18(A) > WOY(A-201)

> <HYBRID receptor filename>
data/docking/5s18.oedu

> <HYBRID Chemgauss4 score>
-5.920884

> <HYBRID receptor title>
5S18(A) > WOY(A-201)

> <HYBRID receptor filename>
data/docking/5s18.oedu

> <Dock Type>
Hybrid

$$$$
MOL0000
  -OEChem-07032400353D

 19 20  0     1  0  0  0  0  0999 V2000
   -3.3245   14.8849    1.2615 C   0  0  0  0  0  0  0  0  0  0  0  0
   -1.1166   14.8420    0.6773 C   0  0  0  0  0  0  0  0  0  0  0  0
   -3.6644   14.8240   -0.0652 C   0  0  0  0  0  0  0  0  0  0  0  0
   -2.6398   14.7830   -0.9972 C   0  0  0  0  0  0  0  0  0  0  0  0
   -4.9934   14.8305   -0.7279 C   0  0  0  0  0  0  0  0  0  0  0  0
   -4.6060   14.4928   -2.1804 C   0  0  0  0  0  0  0  0  0  0  0  0
   -2.4558   14.4845   -3.5224 C   0  0  0  0  0  0  0  0  0  0  0  0
   -2.0385   14.8917    1.6669 N   0  0  0  0  0  0  0  0  0  0  0  0
   -1.3399   14.7884   -0.6531 N   0  0  0  0  0  0  0  0  0  0  0  0
   -3.1687   14.7367   -2.3183 N   0  0  2  0  0  0  0  0  0  0  0  0
   -4.0692   14.9319    2.0466 H   0  0  0  0  0  0  0  0  0  0  0  0
   -0.0791   14.8473    0.9898 H   0  0  0  0  0  0  0  0  0  0  0  0
   -5.6675   14.0781   -0.3094 H   0  0  0  0  0  0  0  0  0  0  0  0
   -5.4461   15.8251   -0.6625 H   0  0  0  0  0  0  0  0  0  0  0  0
   -4.8175   13.4345   -2.3811 H   0  0  0  0  0  0  0  0  0  0  0  0
   -5.1817   15.0892   -2.8961 H   0  0  0  0  0  0  0  0  0  0  0  0
   -3.1313   14.5126   -4.3823 H   0  0  0  0  0  0  0  0  0  0  0  0
   -1.6756   15.2375   -3.6644 H   0  0  0  0  0  0  0  0  0  0  0  0
   -1.9810   13.5003   -3.4811 H   0  0  0  0  0  0  0  0  0  0  0  0
  1  3  1  0  0  0  0
  1  8  2  0  0  0  0
  2  8  1  0  0  0  0
  2  9  2  0  0  0  0
  3  4  2  0  0  0  0
  3  5  1  0  0  0  0
  4  9  1  0  0  0  0
  4 10  1  0  0  0  0
  5  6  1  0  0  0  0
  6 10  1  0  0  0  0
  7 10  1  0  0  0  0
  1 11  1  0  0  0  0
  2 12  1  0  0  0  0
  5 13  1  0  0  0  0
  5 14  1  0  0  0  0
  6 15  1  0  0  0  0
  6 16  1  0  0  0  0
  7 17  1  0  0  0  0
  7 18  1  0  0  0  0
  7 19  1  0  0  0  0
M  END
> <HYBRID receptor title>
5S18(A) > WOY(A-201)

> <HYBRID receptor filename>
data/docking/5s18.oedu

> <HYBRID Chemgauss4 score>
-5.911569

> <HYBRID receptor title>
5S18(A) > WOY(A-201)

> <HYBRID receptor filename>
data/docking/5s18.oedu

> <Dock Type>
Hybrid

$$$$
MOL0046
  -OEChem-07032400353D

 17 18  0     0  0  0  0  0  0999 V2000
   -0.1236   14.7637   -0.2708 C   0  0  0  0  0  0  0  0  0  0  0  0
   -1.3872   14.6574   -0.8409 C   0  0  0  0  0  0  0  0  0  0  0  0
   -0.0315   15.0558    1.0879 C   0  0  0  0  0  0  0  0  0  0  0  0
   -2.4826   14.8543   -0.0225 C   0  0  0  0  0  0  0  0  0  0  0  0
   -2.3042   15.1406    1.3279 C   0  0  0  0  0  0  0  0  0  0  0  0
   -3.9354   14.7772   -0.3528 C   0  0  0  0  0  0  0  0  0  0  0  0
   -4.5838   15.2693    0.9583 C   0  0  0  0  0  0  0  0  0  0  0  0
   -1.0945   15.2464    1.9080 N   0  0  0  0  0  0  0  0  0  0  0  0
   -3.5414   15.2909    1.9686 N   0  0  0  0  0  0  0  0  0  0  0  0
    0.7698   14.6200   -0.8685 H   0  0  0  0  0  0  0  0  0  0  0  0
   -1.5041   14.4253   -1.8935 H   0  0  0  0  0  0  0  0  0  0  0  0
    0.9383   15.1451    1.5674 H   0  0  0  0  0  0  0  0  0  0  0  0
   -4.1958   15.4268   -1.1934 H   0  0  0  0  0  0  0  0  0  0  0  0
   -4.2218   13.7430   -0.5685 H   0  0  0  0  0  0  0  0  0  0  0  0
   -4.9825   16.2818    0.8244 H   0  0  0  0  0  0  0  0  0  0  0  0
   -5.4131   14.6204    1.2584 H   0  0  0  0  0  0  0  0  0  0  0  0
   -3.6561   15.5521    2.9356 H   0  0  0  0  0  0  0  0  0  0  0  0
  1  2  2  0  0  0  0
  1  3  1  0  0  0  0
  2  4  1  0  0  0  0
  3  8  2  0  0  0  0
  4  5  2  0  0  0  0
  4  6  1  0  0  0  0
  5  8  1  0  0  0  0
  5  9  1  0  0  0  0
  6  7  1  0  0  0  0
  7  9  1  0  0  0  0
  1 10  1  0  0  0  0
  2 11  1  0  0  0  0
  3 12  1  0  0  0  0
  6 13  1  0  0  0  0
  6 14  1  0  0  0  0
  7 15  1  0  0  0  0
  7 16  1  0  0  0  0
  9 17  1  0  0  0  0
M  END
> <HYBRID receptor title>
5S18(A) > WOY(A-201)

> <HYBRID receptor filename>
data/docking/5s18.oedu

> <HYBRID Chemgauss4 score>
-5.909599

> <HYBRID receptor title>
5S18(A) > WOY(A-201)

> <HYBRID receptor filename>
data/docking/5s18.oedu

> <Dock Type>
Hybrid

$$$$
MOL0157
  -OEChem-07032400353D

 22 23  0     1  0  0  0  0  0999 V2000
   -0.7391   14.5262   -0.8913 C   0  0  0  0  0  0  0  0  0  0  0  0
    0.2447   14.9085    1.1127 C   0  0  0  0  0  0  0  0  0  0  0  0
   -2.0034   14.5795   -0.3247 C   0  0  0  0  0  0  0  0  0  0  0  0
   -2.0489   14.8532    1.0448 C   0  0  0  0  0  0  0  0  0  0  0  0
   -4.4732   15.1518    0.8589 C   0  0  0  0  0  0  0  0  0  0  0  0
   -4.4228   14.2551   -0.3840 C   0  0  1  0  0  0  0  0  0  0  0  0
   -5.5664   14.5814   -1.3372 C   0  0  0  0  0  0  0  0  0  0  0  0
    0.4062   14.6826   -0.2007 N   0  0  0  0  0  0  0  0  0  0  0  0
   -0.9209   15.0024    1.7797 N   0  0  0  0  0  0  0  0  0  0  0  0
   -3.1525   14.4209   -1.0777 N   0  0  0  0  0  0  0  0  0  0  0  0
   -3.2861   14.9674    1.6721 N   0  0  0  0  0  0  0  0  0  0  0  0
   -5.7574   13.4803   -2.2075 O   0  0  0  0  0  0  0  0  0  0  0  0
   -0.6065   14.3423   -1.9534 H   0  0  0  0  0  0  0  0  0  0  0  0
    1.1474   15.0307    1.6985 H   0  0  0  0  0  0  0  0  0  0  0  0
   -4.5507   16.2082    0.5719 H   0  0  0  0  0  0  0  0  0  0  0  0
   -5.3594   14.9161    1.4586 H   0  0  0  0  0  0  0  0  0  0  0  0
   -4.5163   13.2063   -0.0732 H   0  0  0  0  0  0  0  0  0  0  0  0
   -5.3214   15.4662   -1.9250 H   0  0  0  0  0  0  0  0  0  0  0  0
   -6.4837   14.7574   -0.7739 H   0  0  0  0  0  0  0  0  0  0  0  0
   -3.0684   14.1217   -2.0422 H   0  0  0  0  0  0  0  0  0  0  0  0
   -3.3073   15.1872    2.6600 H   0  0  0  0  0  0  0  0  0  0  0  0
   -6.4895   13.7122   -2.8036 H   0  0  0  0  0  0  0  0  0  0  0  0
  1  3  1  0  0  0  0
  1  8  2  0  0  0  0
  2  8  1  0  0  0  0
  2  9  2  0  0  0  0
  3  4  2  0  0  0  0
  3 10  1  0  0  0  0
  4  9  1  0  0  0  0
  4 11  1  0  0  0  0
  5  6  1  0  0  0  0
  5 11  1  0  0  0  0
  6  7  1  0  0  0  0
  6 10  1  0  0  0  0
  7 12  1  0  0  0  0
  1 13  1  0  0  0  0
  2 14  1  0  0  0  0
  5 15  1  0  0  0  0
  5 16  1  0  0  0  0
  6 17  1  0  0  0  0
  7 18  1  0  0  0  0
  7 19  1  0  0  0  0
 10 20  1  0  0  0  0
 11 21  1  0  0  0  0
 12 22  1  0  0  0  0
M  END
> <HYBRID receptor title>
5S18(A) > WOY(A-201)

> <HYBRID receptor filename>
data/docking/5s18.oedu

> <HYBRID Chemgauss4 score>
-5.907368

> <HYBRID receptor title>
5S18(A) > WOY(A-201)

> <HYBRID receptor filename>
data/docking/5s18.oedu

> <Dock Type>
Hybrid

$$$$
MOL0207
  -OEChem-07032400353D

 25 26  0     1  0  0  0  0  0999 V2000
   -2.0693   15.2062    1.0157 C   0  0  0  0  0  0  0  0  0  0  0  0
    0.1586   14.7652    0.9966 C   0  0  0  0  0  0  0  0  0  0  0  0
   -2.1489   15.0324   -0.3558 C   0  0  0  0  0  0  0  0  0  0  0  0
   -0.9612   14.6907   -0.9934 C   0  0  0  0  0  0  0  0  0  0  0  0
   -3.4453   15.1304   -1.1003 C   0  0  0  0  0  0  0  0  0  0  0  0
   -0.9265   14.5190   -2.4927 C   0  0  0  0  0  0  0  0  0  0  0  0
   -3.2431   15.1899   -2.6197 C   0  0  0  0  0  0  0  0  0  0  0  0
   -2.6373   12.8545   -2.9839 C   0  0  0  0  0  0  0  0  0  0  0  0
   -1.9381   12.0356   -4.0357 C   0  0  0  0  0  0  0  0  0  0  0  0
   -0.9286   15.0840    1.7220 N   0  0  0  0  0  0  0  0  0  0  0  0
    0.2129   14.5611   -0.3340 N   0  0  0  0  0  0  0  0  0  0  0  0
   -2.2309   14.2512   -3.1224 N   0  0  2  0  0  0  0  0  0  0  0  0
   -2.2718   10.7304   -3.9444 F   0  0  0  0  0  0  0  0  0  0  0  0
   -2.2493   12.4622   -5.2784 F   0  0  0  0  0  0  0  0  0  0  0  0
   -0.5968   12.1271   -3.8947 F   0  0  0  0  0  0  0  0  0  0  0  0
   -2.9476   15.4541    1.6032 H   0  0  0  0  0  0  0  0  0  0  0  0
    1.0895   14.6617    1.5391 H   0  0  0  0  0  0  0  0  0  0  0  0
   -4.0527   14.2527   -0.8481 H   0  0  0  0  0  0  0  0  0  0  0  0
   -3.9945   16.0224   -0.7796 H   0  0  0  0  0  0  0  0  0  0  0  0
   -0.4672   15.4310   -2.9201 H   0  0  0  0  0  0  0  0  0  0  0  0
   -0.2415   13.6828   -2.7241 H   0  0  0  0  0  0  0  0  0  0  0  0
   -4.2264   14.9877   -3.1005 H   0  0  0  0  0  0  0  0  0  0  0  0
   -2.9850   16.2320   -2.9221 H   0  0  0  0  0  0  0  0  0  0  0  0
   -2.3714   12.5124   -1.9800 H   0  0  0  0  0  0  0  0  0  0  0  0
   -3.7235   12.7949   -3.0990 H   0  0  0  0  0  0  0  0  0  0  0  0
  1  3  1  0  0  0  0
  1 10  2  0  0  0  0
  2 10  1  0  0  0  0
  2 11  2  0  0  0  0
  3  4  2  0  0  0  0
  3  5  1  0  0  0  0
  4  6  1  0  0  0  0
  4 11  1  0  0  0  0
  5  7  1  0  0  0  0
  6 12  1  0  0  0  0
  7 12  1  0  0  0  0
  8  9  1  0  0  0  0
  8 12  1  0  0  0  0
  9 13  1  0  0  0  0
  9 14  1  0  0  0  0
  9 15  1  0  0  0  0
  1 16  1  0  0  0  0
  2 17  1  0  0  0  0
  5 18  1  0  0  0  0
  5 19  1  0  0  0  0
  6 20  1  0  0  0  0
  6 21  1  0  0  0  0
  7 22  1  0  0  0  0
  7 23  1  0  0  0  0
  8 24  1  0  0  0  0
  8 25  1  0  0  0  0
M  END
> <HYBRID receptor title>
5S18(A) > WOY(A-201)

> <HYBRID receptor filename>
data/docking/5s18.oedu

> <HYBRID Chemgauss4 score>
-5.899206

> <HYBRID receptor title>
5S18(A) > WOY(A-201)

> <HYBRID receptor filename>
data/docking/5s18.oedu

> <Dock Type>
Hybrid

$$$$
MOL0181
  -OEChem-07032400353D

 15 16  0     0  0  0  0  0  0999 V2000
   -4.1966   15.0146   -0.5531 C   0  0  0  0  0  0  0  0  0  0  0  0
   -4.4147   14.6760   -1.8760 C   0  0  0  0  0  0  0  0  0  0  0  0
   -2.5415   15.2248    1.2518 C   0  0  0  0  0  0  0  0  0  0  0  0
   -2.1931   14.1746   -2.1920 C   0  0  0  0  0  0  0  0  0  0  0  0
   -0.3725   14.7083    0.8503 C   0  0  0  0  0  0  0  0  0  0  0  0
   -2.8899   14.9137   -0.0598 C   0  0  0  0  0  0  0  0  0  0  0  0
   -1.8456   14.4838   -0.8871 C   0  0  0  0  0  0  0  0  0  0  0  0
   -3.4418   14.2572   -2.7108 N   0  0  0  0  0  0  0  0  0  0  0  0
   -1.2886   15.1317    1.7378 N   0  0  0  0  0  0  0  0  0  0  0  0
   -0.5807   14.3778   -0.4400 N   0  0  0  0  0  0  0  0  0  0  0  0
   -5.0183   15.3466    0.0729 H   0  0  0  0  0  0  0  0  0  0  0  0
   -5.4065   14.7356   -2.3111 H   0  0  0  0  0  0  0  0  0  0  0  0
   -3.2817   15.5668    1.9693 H   0  0  0  0  0  0  0  0  0  0  0  0
   -1.4405   13.8321   -2.8974 H   0  0  0  0  0  0  0  0  0  0  0  0
    0.6456   14.6241    1.2104 H   0  0  0  0  0  0  0  0  0  0  0  0
  1  2  1  0  0  0  0
  1  6  2  0  0  0  0
  2  8  2  0  0  0  0
  3  6  1  0  0  0  0
  3  9  2  0  0  0  0
  4  7  2  0  0  0  0
  4  8  1  0  0  0  0
  5  9  1  0  0  0  0
  5 10  2  0  0  0  0
  6  7  1  0  0  0  0
  7 10  1  0  0  0  0
  1 11  1  0  0  0  0
  2 12  1  0  0  0  0
  3 13  1  0  0  0  0
  4 14  1  0  0  0  0
  5 15  1  0  0  0  0
M  END
> <HYBRID receptor title>
5S18(A) > WOY(A-201)

> <HYBRID receptor filename>
data/docking/5s18.oedu

> <HYBRID Chemgauss4 score>
-5.883245

> <HYBRID receptor title>
5S18(A) > WOY(A-201)

> <HYBRID receptor filename>
data/docking/5s18.oedu

> <Dock Type>
Hybrid

$$$$
MOL0165
  -OEChem-07032400353D

 18 19  0     0  0  0  0  0  0999 V2000
   -2.8359   14.8994    1.3632 C   0  0  0  0  0  0  0  0  0  0  0  0
   -0.5619   14.7978    1.1286 C   0  0  0  0  0  0  0  0  0  0  0  0
   -2.9669   14.9901    0.0016 C   0  0  0  0  0  0  0  0  0  0  0  0
   -1.8036   14.9767   -0.7437 C   0  0  0  0  0  0  0  0  0  0  0  0
   -1.2296   15.0943   -3.1391 C   0  0  0  0  0  0  0  0  0  0  0  0
   -4.1892   15.1036   -0.8418 C   0  0  0  0  0  0  0  0  0  0  0  0
   -3.5881   15.1630   -2.2543 C   0  0  0  0  0  0  0  0  0  0  0  0
   -1.6298   14.8009    1.9621 N   0  0  0  0  0  0  0  0  0  0  0  0
   -0.5721   14.8813   -0.2185 N   0  0  0  0  0  0  0  0  0  0  0  0
   -2.1305   15.0774   -2.1038 N   0  0  0  0  0  0  0  0  0  0  0  0
   -0.0087   15.0245   -3.0449 O   0  0  0  0  0  0  0  0  0  0  0  0
   -3.6930   14.9013    2.0259 H   0  0  0  0  0  0  0  0  0  0  0  0
    0.4114   14.7196    1.5982 H   0  0  0  0  0  0  0  0  0  0  0  0
   -1.7145   15.1808   -4.1251 H   0  0  0  0  0  0  0  0  0  0  0  0
   -4.8321   14.2266   -0.7219 H   0  0  0  0  0  0  0  0  0  0  0  0
   -4.7447   16.0170   -0.6093 H   0  0  0  0  0  0  0  0  0  0  0  0
   -3.9297   14.3329   -2.8828 H   0  0  0  0  0  0  0  0  0  0  0  0
   -3.8370   16.0979   -2.7691 H   0  0  0  0  0  0  0  0  0  0  0  0
  1  3  1  0  0  0  0
  1  8  2  0  0  0  0
  2  8  1  0  0  0  0
  2  9  2  0  0  0  0
  3  4  2  0  0  0  0
  3  6  1  0  0  0  0
  4  9  1  0  0  0  0
  4 10  1  0  0  0  0
  5 10  1  0  0  0  0
  5 11  2  0  0  0  0
  6  7  1  0  0  0  0
  7 10  1  0  0  0  0
  1 12  1  0  0  0  0
  2 13  1  0  0  0  0
  5 14  1  0  0  0  0
  6 15  1  0  0  0  0
  6 16  1  0  0  0  0
  7 17  1  0  0  0  0
  7 18  1  0  0  0  0
M  END
> <HYBRID receptor title>
5S18(A) > WOY(A-201)

> <HYBRID receptor filename>
data/docking/5s18.oedu

> <HYBRID Chemgauss4 score>
-5.869681

> <HYBRID receptor title>
5S18(A) > WOY(A-201)

> <HYBRID receptor filename>
data/docking/5s18.oedu

> <Dock Type>
Hybrid

$$$$
MOL0211
  -OEChem-07032400353D

 32 34  0     1  0  0  0  0  0999 V2000
   -2.9621   12.4739   -5.6146 C   0  0  0  0  0  0  0  0  0  0  0  0
   -3.1700   11.3052   -3.5102 C   0  0  0  0  0  0  0  0  0  0  0  0
   -2.4351   11.3231   -6.2009 C   0  0  0  0  0  0  0  0  0  0  0  0
   -2.6431   10.1545   -4.0964 C   0  0  0  0  0  0  0  0  0  0  0  0
   -2.4316   14.9409    1.6638 C   0  0  0  0  0  0  0  0  0  0  0  0
   -0.2532   14.8202    1.0327 C   0  0  0  0  0  0  0  0  0  0  0  0
   -2.8537   14.7040    0.3672 C   0  0  0  0  0  0  0  0  0  0  0  0
   -3.3296   12.4647   -4.2691 C   0  0  0  0  0  0  0  0  0  0  0  0
   -2.2755   10.1636   -5.4419 C   0  0  0  0  0  0  0  0  0  0  0  0
   -1.8470   14.5090   -0.5720 C   0  0  0  0  0  0  0  0  0  0  0  0
   -4.3007   14.5900    0.0006 C   0  0  0  0  0  0  0  0  0  0  0  0
   -2.2012   14.2802   -2.0217 C   0  0  0  0  0  0  0  0  0  0  0  0
   -4.5299   14.6613   -1.5138 C   0  0  0  0  0  0  0  0  0  0  0  0
   -3.8957   13.7039   -3.6371 C   0  0  0  0  0  0  0  0  0  0  0  0
   -1.1357   15.0087    2.0309 N   0  0  0  0  0  0  0  0  0  0  0  0
   -0.5326   14.5743   -0.2612 N   0  0  0  0  0  0  0  0  0  0  0  0
   -3.5769   13.7859   -2.2117 N   0  0  1  0  0  0  0  0  0  0  0  0
   -1.7688    9.0593   -6.0055 F   0  0  0  0  0  0  0  0  0  0  0  0
   -3.0836   13.3726   -6.2133 H   0  0  0  0  0  0  0  0  0  0  0  0
   -3.4540   11.2891   -2.4612 H   0  0  0  0  0  0  0  0  0  0  0  0
   -2.1488   11.3292   -7.2483 H   0  0  0  0  0  0  0  0  0  0  0  0
   -2.5184    9.2515   -3.5058 H   0  0  0  0  0  0  0  0  0  0  0  0
   -3.1433   15.0856    2.4704 H   0  0  0  0  0  0  0  0  0  0  0  0
    0.7955   14.8721    1.2986 H   0  0  0  0  0  0  0  0  0  0  0  0
   -4.6764   13.6315    0.3808 H   0  0  0  0  0  0  0  0  0  0  0  0
   -4.8738   15.3894    0.4847 H   0  0  0  0  0  0  0  0  0  0  0  0
   -2.0487   15.2276   -2.5556 H   0  0  0  0  0  0  0  0  0  0  0  0
   -1.4982   13.5460   -2.4340 H   0  0  0  0  0  0  0  0  0  0  0  0
   -5.5615   14.3491   -1.7180 H   0  0  0  0  0  0  0  0  0  0  0  0
   -4.4304   15.6986   -1.8619 H   0  0  0  0  0  0  0  0  0  0  0  0
   -3.4991   14.6010   -4.1239 H   0  0  0  0  0  0  0  0  0  0  0  0
   -4.9856   13.7337   -3.7384 H   0  0  0  0  0  0  0  0  0  0  0  0
  1  3  2  0  0  0  0
  1  8  1  0  0  0  0
  2  4  1  0  0  0  0
  2  8  2  0  0  0  0
  3  9  1  0  0  0  0
  4  9  2  0  0  0  0
  5  7  1  0  0  0  0
  5 15  2  0  0  0  0
  6 15  1  0  0  0  0
  6 16  2  0  0  0  0
  7 10  2  0  0  0  0
  7 11  1  0  0  0  0
  8 14  1  0  0  0  0
  9 18  1  0  0  0  0
 10 12  1  0  0  0  0
 10 16  1  0  0  0  0
 11 13  1  0  0  0  0
 12 17  1  0  0  0  0
 13 17  1  0  0  0  0
 14 17  1  0  0  0  0
  1 19  1  0  0  0  0
  2 20  1  0  0  0  0
  3 21  1  0  0  0  0
  4 22  1  0  0  0  0
  5 23  1  0  0  0  0
  6 24  1  0  0  0  0
 11 25  1  0  0  0  0
 11 26  1  0  0  0  0
 12 27  1  0  0  0  0
 12 28  1  0  0  0  0
 13 29  1  0  0  0  0
 13 30  1  0  0  0  0
 14 31  1  0  0  0  0
 14 32  1  0  0  0  0
M  END
> <HYBRID receptor title>
5S18(A) > WOY(A-201)

> <HYBRID receptor filename>
data/docking/5s18.oedu

> <HYBRID Chemgauss4 score>
-5.868605

> <HYBRID receptor title>
5S18(A) > WOY(A-201)

> <HYBRID receptor filename>
data/docking/5s18.oedu

> <Dock Type>
Hybrid

$$$$
MOL0047
  -OEChem-07032400353D

 22 23  0     0  0  0  0  0  0999 V2000
   -2.5458   14.9760    1.3840 C   0  0  0  0  0  0  0  0  0  0  0  0
   -0.3334   14.6126    1.0533 C   0  0  0  0  0  0  0  0  0  0  0  0
   -2.7832   15.0456    0.0179 C   0  0  0  0  0  0  0  0  0  0  0  0
   -1.6637   14.8844   -0.7919 C   0  0  0  0  0  0  0  0  0  0  0  0
   -4.1587   15.2939   -0.5232 C   0  0  0  0  0  0  0  0  0  0  0  0
   -1.7647   14.9589   -2.2919 C   0  0  0  0  0  0  0  0  0  0  0  0
   -4.6558   14.1830   -1.4507 C   0  0  0  0  0  0  0  0  0  0  0  0
   -2.6938   13.9031   -2.8911 C   0  0  0  0  0  0  0  0  0  0  0  0
   -1.3347   14.7590    1.9359 N   0  0  0  0  0  0  0  0  0  0  0  0
   -0.4254   14.6635   -0.2875 N   0  0  0  0  0  0  0  0  0  0  0  0
   -4.1109   14.2588   -2.8058 N   0  0  0  0  0  0  0  0  0  0  0  0
   -3.3508   15.0992    2.1022 H   0  0  0  0  0  0  0  0  0  0  0  0
    0.6533   14.4346    1.4644 H   0  0  0  0  0  0  0  0  0  0  0  0
   -4.8561   15.4584    0.3085 H   0  0  0  0  0  0  0  0  0  0  0  0
   -4.1569   16.2309   -1.0960 H   0  0  0  0  0  0  0  0  0  0  0  0
   -2.1556   15.9479   -2.5645 H   0  0  0  0  0  0  0  0  0  0  0  0
   -0.7605   14.9030   -2.7303 H   0  0  0  0  0  0  0  0  0  0  0  0
   -4.3224   13.2248   -1.0341 H   0  0  0  0  0  0  0  0  0  0  0  0
   -5.7519   14.1393   -1.4748 H   0  0  0  0  0  0  0  0  0  0  0  0
   -2.4155   13.6583   -3.9237 H   0  0  0  0  0  0  0  0  0  0  0  0
   -2.5696   12.9788   -2.3140 H   0  0  0  0  0  0  0  0  0  0  0  0
   -4.6535   13.6593   -3.4281 H   0  0  0  0  0  0  0  0  0  0  0  0
  1  3  1  0  0  0  0
  1  9  2  0  0  0  0
  2  9  1  0  0  0  0
  2 10  2  0  0  0  0
  3  4  2  0  0  0  0
  3  5  1  0  0  0  0
  4  6  1  0  0  0  0
  4 10  1  0  0  0  0
  5  7  1  0  0  0  0
  6  8  1  0  0  0  0
  7 11  1  0  0  0  0
  8 11  1  0  0  0  0
  1 12  1  0  0  0  0
  2 13  1  0  0  0  0
  5 14  1  0  0  0  0
  5 15  1  0  0  0  0
  6 16  1  0  0  0  0
  6 17  1  0  0  0  0
  7 18  1  0  0  0  0
  7 19  1  0  0  0  0
  8 20  1  0  0  0  0
  8 21  1  0  0  0  0
 11 22  1  0  0  0  0
M  END
> <HYBRID receptor title>
5S18(A) > WOY(A-201)

> <HYBRID receptor filename>
data/docking/5s18.oedu

> <HYBRID Chemgauss4 score>
-5.855826

> <HYBRID receptor title>
5S18(A) > WOY(A-201)

> <HYBRID receptor filename>
data/docking/5s18.oedu

> <Dock Type>
Hybrid

$$$$
MOL0132
  -OEChem-07032400353D

 19 20  0     1  0  0  0  0  0999 V2000
   -3.4630   15.1903    1.6454 C   0  0  0  0  0  0  0  0  0  0  0  0
   -4.0180   15.1811    0.3919 C   0  0  0  0  0  0  0  0  0  0  0  0
   -3.1624   15.1352   -0.6972 C   0  0  0  0  0  0  0  0  0  0  0  0
   -1.3841   15.0933    0.7040 C   0  0  0  0  0  0  0  0  0  0  0  0
   -5.4365   15.2512   -0.0420 C   0  0  0  0  0  0  0  0  0  0  0  0
   -5.3055   14.9455   -1.5464 C   0  0  0  0  0  0  0  0  0  0  0  0
   -3.4065   14.9081   -3.2247 C   0  0  0  0  0  0  0  0  0  0  0  0
   -2.1285   15.1428    1.8331 N   0  0  0  0  0  0  0  0  0  0  0  0
   -1.8244   15.0877   -0.5723 N   0  0  0  0  0  0  0  0  0  0  0  0
   -3.9022   15.1465   -1.9136 N   0  0  2  0  0  0  0  0  0  0  0  0
    0.3113   15.0330    0.9190 Cl  0  0  0  0  0  0  0  0  0  0  0  0
   -4.0665   15.2375    2.5437 H   0  0  0  0  0  0  0  0  0  0  0  0
   -6.0600   14.5083    0.4632 H   0  0  0  0  0  0  0  0  0  0  0  0
   -5.8355   16.2571    0.1220 H   0  0  0  0  0  0  0  0  0  0  0  0
   -5.5863   13.9012   -1.7355 H   0  0  0  0  0  0  0  0  0  0  0  0
   -5.9685   15.5818   -2.1424 H   0  0  0  0  0  0  0  0  0  0  0  0
   -4.2124   14.9844   -3.9603 H   0  0  0  0  0  0  0  0  0  0  0  0
   -2.6326   15.6393   -3.4748 H   0  0  0  0  0  0  0  0  0  0  0  0
   -2.9682   13.9082   -3.2866 H   0  0  0  0  0  0  0  0  0  0  0  0
  1  2  1  0  0  0  0
  1  8  2  0  0  0  0
  2  3  2  0  0  0  0
  2  5  1  0  0  0  0
  3  9  1  0  0  0  0
  3 10  1  0  0  0  0
  4  8  1  0  0  0  0
  4  9  2  0  0  0  0
  4 11  1  0  0  0  0
  5  6  1  0  0  0  0
  6 10  1  0  0  0  0
  7 10  1  0  0  0  0
  1 12  1  0  0  0  0
  5 13  1  0  0  0  0
  5 14  1  0  0  0  0
  6 15  1  0  0  0  0
  6 16  1  0  0  0  0
  7 17  1  0  0  0  0
  7 18  1  0  0  0  0
  7 19  1  0  0  0  0
M  END
> <HYBRID receptor title>
5S18(A) > WOY(A-201)

> <HYBRID receptor filename>
data/docking/5s18.oedu

> <HYBRID Chemgauss4 score>
-5.841565

> <HYBRID receptor title>
5S18(A) > WOY(A-201)

> <HYBRID receptor filename>
data/docking/5s18.oedu

> <Dock Type>
Hybrid

$$$$
MOL0191
  -OEChem-07032400353D

 21 22  0     1  0  0  0  0  0999 V2000
   -2.4740   14.9774    1.3560 C   0  0  0  0  0  0  0  0  0  0  0  0
   -0.3332   14.3690    0.9172 C   0  0  0  0  0  0  0  0  0  0  0  0
   -2.7935   14.9701    0.0069 C   0  0  0  0  0  0  0  0  0  0  0  0
   -1.7514   14.6459   -0.8576 C   0  0  0  0  0  0  0  0  0  0  0  0
   -4.1605   15.3581   -0.4710 C   0  0  0  0  0  0  0  0  0  0  0  0
   -4.4205   14.9563   -1.9225 C   0  0  0  0  0  0  0  0  0  0  0  0
   -3.2280   15.3247   -2.8033 C   0  0  0  0  0  0  0  0  0  0  0  0
   -1.9677   14.5840   -2.3468 C   0  0  2  0  0  0  0  0  0  0  0  0
   -1.2544   14.6773    1.8458 N   0  0  0  0  0  0  0  0  0  0  0  0
   -0.5090   14.3340   -0.4170 N   0  0  0  0  0  0  0  0  0  0  0  0
   -2.0636   13.2068   -2.7057 O   0  0  0  0  0  0  0  0  0  0  0  0
   -3.2143   15.2362    2.1069 H   0  0  0  0  0  0  0  0  0  0  0  0
    0.6569   14.1221    1.2802 H   0  0  0  0  0  0  0  0  0  0  0  0
   -4.9254   14.8993    0.1666 H   0  0  0  0  0  0  0  0  0  0  0  0
   -4.2595   16.4466   -0.3753 H   0  0  0  0  0  0  0  0  0  0  0  0
   -4.6051   13.8764   -1.9828 H   0  0  0  0  0  0  0  0  0  0  0  0
   -5.3265   15.4548   -2.2852 H   0  0  0  0  0  0  0  0  0  0  0  0
   -3.4590   15.0739   -3.8449 H   0  0  0  0  0  0  0  0  0  0  0  0
   -3.0631   16.4083   -2.7509 H   0  0  0  0  0  0  0  0  0  0  0  0
   -1.0930   15.0014   -2.8589 H   0  0  0  0  0  0  0  0  0  0  0  0
   -2.2023   13.1819   -3.6646 H   0  0  0  0  0  0  0  0  0  0  0  0
  1  3  1  0  0  0  0
  1  9  2  0  0  0  0
  2  9  1  0  0  0  0
  2 10  2  0  0  0  0
  3  4  2  0  0  0  0
  3  5  1  0  0  0  0
  4  8  1  0  0  0  0
  4 10  1  0  0  0  0
  5  6  1  0  0  0  0
  6  7  1  0  0  0  0
  7  8  1  0  0  0  0
  8 11  1  0  0  0  0
  1 12  1  0  0  0  0
  2 13  1  0  0  0  0
  5 14  1  0  0  0  0
  5 15  1  0  0  0  0
  6 16  1  0  0  0  0
  6 17  1  0  0  0  0
  7 18  1  0  0  0  0
  7 19  1  0  0  0  0
  8 20  1  0  0  0  0
 11 21  1  0  0  0  0
M  END
> <HYBRID receptor title>
5S18(A) > WOY(A-201)

> <HYBRID receptor filename>
data/docking/5s18.oedu

> <HYBRID Chemgauss4 score>
-5.839396

> <HYBRID receptor title>
5S18(A) > WOY(A-201)

> <HYBRID receptor filename>
data/docking/5s18.oedu

> <Dock Type>
Hybrid

$$$$
MOL0037
  -OEChem-07032400353D

 21 22  0     1  0  0  0  0  0999 V2000
   -1.7111   14.8418   -0.9780 C   0  0  0  0  0  0  0  0  0  0  0  0
   -0.6166   14.8631    1.0050 C   0  0  0  0  0  0  0  0  0  0  0  0
   -2.9424   14.8717   -0.3427 C   0  0  0  0  0  0  0  0  0  0  0  0
   -2.9118   14.8627    1.0540 C   0  0  0  0  0  0  0  0  0  0  0  0
   -5.3593   15.1563   -0.3281 C   0  0  0  0  0  0  0  0  0  0  0  0
   -5.3435   14.5078    1.0617 C   0  0  2  0  0  0  0  0  0  0  0  0
   -6.5386   14.9666    1.8902 C   0  0  0  0  0  0  0  0  0  0  0  0
   -0.5275   14.8403   -0.3343 N   0  0  0  0  0  0  0  0  0  0  0  0
   -1.7445   14.8750    1.7408 N   0  0  0  0  0  0  0  0  0  0  0  0
   -4.1325   14.8647   -1.0463 N   0  0  0  0  0  0  0  0  0  0  0  0
   -4.1119   14.8439    1.7606 N   0  0  0  0  0  0  0  0  0  0  0  0
   -1.6376   14.8248   -2.0614 H   0  0  0  0  0  0  0  0  0  0  0  0
    0.3174   14.8701    1.5533 H   0  0  0  0  0  0  0  0  0  0  0  0
   -6.2117   14.7854   -0.9083 H   0  0  0  0  0  0  0  0  0  0  0  0
   -5.4754   16.2444   -0.2455 H   0  0  0  0  0  0  0  0  0  0  0  0
   -5.3961   13.4169    0.9497 H   0  0  0  0  0  0  0  0  0  0  0  0
   -6.5100   16.0483    2.0162 H   0  0  0  0  0  0  0  0  0  0  0  0
   -6.5137   14.4941    2.8715 H   0  0  0  0  0  0  0  0  0  0  0  0
   -7.4667   14.6923    1.3881 H   0  0  0  0  0  0  0  0  0  0  0  0
   -4.1153   14.9463   -2.0557 H   0  0  0  0  0  0  0  0  0  0  0  0
   -4.0676   14.8006    2.7715 H   0  0  0  0  0  0  0  0  0  0  0  0
  1  3  1  0  0  0  0
  1  8  2  0  0  0  0
  2  8  1  0  0  0  0
  2  9  2  0  0  0  0
  3  4  2  0  0  0  0
  3 10  1  0  0  0  0
  4  9  1  0  0  0  0
  4 11  1  0  0  0  0
  5  6  1  0  0  0  0
  5 10  1  0  0  0  0
  6  7  1  0  0  0  0
  6 11  1  0  0  0  0
  1 12  1  0  0  0  0
  2 13  1  0  0  0  0
  5 14  1  0  0  0  0
  5 15  1  0  0  0  0
  6 16  1  0  0  0  0
  7 17  1  0  0  0  0
  7 18  1  0  0  0  0
  7 19  1  0  0  0  0
 10 20  1  0  0  0  0
 11 21  1  0  0  0  0
M  END
> <HYBRID receptor title>
5S18(A) > WOY(A-201)

> <HYBRID receptor filename>
data/docking/5s18.oedu

> <HYBRID Chemgauss4 score>
-5.830142

> <HYBRID receptor title>
5S18(A) > WOY(A-201)

> <HYBRID receptor filename>
data/docking/5s18.oedu

> <Dock Type>
Hybrid

$$$$
MOL0217
  -OEChem-07032400353D

 34 35  0     0  0  0  0  0  0999 V2000
   -2.2286   15.2234    1.4127 C   0  0  0  0  0  0  0  0  0  0  0  0
   -0.0293   14.7626    1.0939 C   0  0  0  0  0  0  0  0  0  0  0  0
   -2.4940   15.0640    0.0624 C   0  0  0  0  0  0  0  0  0  0  0  0
   -1.4068   14.7159   -0.7318 C   0  0  0  0  0  0  0  0  0  0  0  0
   -3.4032   13.7915   -3.7839 C   0  0  0  0  0  0  0  0  0  0  0  0
   -3.8769   15.1978   -0.4954 C   0  0  0  0  0  0  0  0  0  0  0  0
   -1.5638   14.5059   -2.2145 C   0  0  0  0  0  0  0  0  0  0  0  0
   -3.8541   15.4544   -1.9990 C   0  0  0  0  0  0  0  0  0  0  0  0
   -5.0547   11.7446   -4.9105 C   0  0  0  0  0  0  0  0  0  0  0  0
   -4.5451   13.7168   -6.3803 C   0  0  0  0  0  0  0  0  0  0  0  0
   -6.7749   13.5540   -5.2353 C   0  0  0  0  0  0  0  0  0  0  0  0
   -5.2828   13.2397   -5.1314 C   0  0  0  0  0  0  0  0  0  0  0  0
   -1.0050   15.0839    1.9614 N   0  0  0  0  0  0  0  0  0  0  0  0
   -0.1569   14.5678   -0.2330 N   0  0  0  0  0  0  0  0  0  0  0  0
   -2.9586   14.5153   -2.6729 N   0  0  0  0  0  0  0  0  0  0  0  0
   -2.6832   13.0814   -4.4836 O   0  0  0  0  0  0  0  0  0  0  0  0
   -4.7441   13.9526   -4.0134 O   0  0  0  0  0  0  0  0  0  0  0  0
   -3.0172   15.4761    2.1154 H   0  0  0  0  0  0  0  0  0  0  0  0
    0.9658   14.6488    1.5048 H   0  0  0  0  0  0  0  0  0  0  0  0
   -4.4508   14.2850   -0.3000 H   0  0  0  0  0  0  0  0  0  0  0  0
   -4.3816   16.0275    0.0134 H   0  0  0  0  0  0  0  0  0  0  0  0
   -0.9896   15.2717   -2.7456 H   0  0  0  0  0  0  0  0  0  0  0  0
   -1.1505   13.5262   -2.4811 H   0  0  0  0  0  0  0  0  0  0  0  0
   -4.8522   15.3086   -2.4307 H   0  0  0  0  0  0  0  0  0  0  0  0
   -3.5611   16.4901   -2.1980 H   0  0  0  0  0  0  0  0  0  0  0  0
   -5.5819   11.3971   -4.0157 H   0  0  0  0  0  0  0  0  0  0  0  0
   -5.3981   11.1544   -5.7659 H   0  0  0  0  0  0  0  0  0  0  0  0
   -3.9927   11.5335   -4.7457 H   0  0  0  0  0  0  0  0  0  0  0  0
   -4.7060   14.7888   -6.5427 H   0  0  0  0  0  0  0  0  0  0  0  0
   -3.4684   13.5347   -6.3086 H   0  0  0  0  0  0  0  0  0  0  0  0
   -4.9236   13.2087   -7.2746 H   0  0  0  0  0  0  0  0  0  0  0  0
   -6.9520   14.6227   -5.3938 H   0  0  0  0  0  0  0  0  0  0  0  0
   -7.2344   13.0009   -6.0626 H   0  0  0  0  0  0  0  0  0  0  0  0
   -7.3018   13.2449   -4.3259 H   0  0  0  0  0  0  0  0  0  0  0  0
  1  3  1  0  0  0  0
  1 13  2  0  0  0  0
  2 13  1  0  0  0  0
  2 14  2  0  0  0  0
  3  4  2  0  0  0  0
  3  6  1  0  0  0  0
  4  7  1  0  0  0  0
  4 14  1  0  0  0  0
  5 15  1  0  0  0  0
  5 16  2  0  0  0  0
  5 17  1  0  0  0  0
  6  8  1  0  0  0  0
  7 15  1  0  0  0  0
  8 15  1  0  0  0  0
  9 12  1  0  0  0  0
 10 12  1  0  0  0  0
 11 12  1  0  0  0  0
 12 17  1  0  0  0  0
  1 18  1  0  0  0  0
  2 19  1  0  0  0  0
  6 20  1  0  0  0  0
  6 21  1  0  0  0  0
  7 22  1  0  0  0  0
  7 23  1  0  0  0  0
  8 24  1  0  0  0  0
  8 25  1  0  0  0  0
  9 26  1  0  0  0  0
  9 27  1  0  0  0  0
  9 28  1  0  0  0  0
 10 29  1  0  0  0  0
 10 30  1  0  0  0  0
 10 31  1  0  0  0  0
 11 32  1  0  0  0  0
 11 33  1  0  0  0  0
 11 34  1  0  0  0  0
M  END
> <HYBRID receptor title>
5S18(A) > WOY(A-201)

> <HYBRID receptor filename>
data/docking/5s18.oedu

> <HYBRID Chemgauss4 score>
-5.824339

> <HYBRID receptor title>
5S18(A) > WOY(A-201)

> <HYBRID receptor filename>
data/docking/5s18.oedu

> <Dock Type>
Hybrid

$$$$
MOL0164
  -OEChem-07032400353D

 18 19  0     0  0  0  0  0  0999 V2000
   -3.2726   14.3188   -0.8978 C   0  0  0  0  0  0  0  0  0  0  0  0
   -4.1764   14.5925    0.0946 C   0  0  0  0  0  0  0  0  0  0  0  0
   -3.6852   14.9576    1.3366 C   0  0  0  0  0  0  0  0  0  0  0  0
   -1.5692   14.7532    0.5624 C   0  0  0  0  0  0  0  0  0  0  0  0
   -5.6636   14.6003    0.0844 C   0  0  0  0  0  0  0  0  0  0  0  0
   -5.9838   14.8527    1.5741 C   0  0  0  0  0  0  0  0  0  0  0  0
   -1.9421   14.3893   -0.6879 N   0  0  0  0  0  0  0  0  0  0  0  0
   -2.3727   15.0494    1.6065 N   0  0  0  0  0  0  0  0  0  0  0  0
   -4.7358   15.2107    2.2268 N   0  0  0  0  0  0  0  0  0  0  0  0
   -0.1532   14.8350    0.8046 N   0  3  0  0  0  0  0  0  0  0  0  0
    0.6212   14.5705   -0.1343 O   0  5  0  0  0  0  0  0  0  0  0  0
    0.2315   15.1667    1.9422 O   0  0  0  0  0  0  0  0  0  0  0  0
   -3.5803   14.0342   -1.8967 H   0  0  0  0  0  0  0  0  0  0  0  0
   -6.0386   15.4160   -0.5416 H   0  0  0  0  0  0  0  0  0  0  0  0
   -6.0724   13.6435   -0.2533 H   0  0  0  0  0  0  0  0  0  0  0  0
   -6.7307   15.6450    1.6895 H   0  0  0  0  0  0  0  0  0  0  0  0
   -6.3879   13.9423    2.0319 H   0  0  0  0  0  0  0  0  0  0  0  0
   -4.6197   15.4485    3.1993 H   0  0  0  0  0  0  0  0  0  0  0  0
  1  2  1  0  0  0  0
  1  7  2  0  0  0  0
  2  3  2  0  0  0  0
  2  5  1  0  0  0  0
  3  8  1  0  0  0  0
  3  9  1  0  0  0  0
  4  7  1  0  0  0  0
  4  8  2  0  0  0  0
  4 10  1  0  0  0  0
  5  6  1  0  0  0  0
  6  9  1  0  0  0  0
 10 11  1  0  0  0  0
 10 12  2  0  0  0  0
  1 13  1  0  0  0  0
  5 14  1  0  0  0  0
  5 15  1  0  0  0  0
  6 16  1  0  0  0  0
  6 17  1  0  0  0  0
  9 18  1  0  0  0  0
M  CHG  2  10   1  11  -1
M  END
> <HYBRID receptor title>
5S18(A) > WOY(A-201)

> <HYBRID receptor filename>
data/docking/5s18.oedu

> <HYBRID Chemgauss4 score>
-5.821412

> <HYBRID receptor title>
5S18(A) > WOY(A-201)

> <HYBRID receptor filename>
data/docking/5s18.oedu

> <Dock Type>
Hybrid

$$$$
MOL0025
  -OEChem-07032400353D

 21 22  0     1  0  0  0  0  0999 V2000
   -1.2107   14.3670   -1.0779 C   0  0  0  0  0  0  0  0  0  0  0  0
   -0.0421   14.6781    0.8378 C   0  0  0  0  0  0  0  0  0  0  0  0
   -2.4172   14.5124   -0.4109 C   0  0  0  0  0  0  0  0  0  0  0  0
   -2.3317   14.7893    0.9556 C   0  0  0  0  0  0  0  0  0  0  0  0
   -4.7344   15.2629    0.9643 C   0  0  0  0  0  0  0  0  0  0  0  0
   -4.8500   14.3640   -0.2732 C   0  0  1  0  0  0  0  0  0  0  0  0
   -6.0413   14.7719   -1.1320 C   0  0  0  0  0  0  0  0  0  0  0  0
   -0.0031   14.4400   -0.4833 N   0  0  0  0  0  0  0  0  0  0  0  0
   -1.1399   14.8568    1.5963 N   0  0  0  0  0  0  0  0  0  0  0  0
   -3.6321   14.4373   -1.0679 N   0  0  0  0  0  0  0  0  0  0  0  0
   -3.5030   14.9936    1.6805 N   0  0  0  0  0  0  0  0  0  0  0  0
   -1.1784   14.1733   -2.1460 H   0  0  0  0  0  0  0  0  0  0  0  0
    0.9115   14.7351    1.3482 H   0  0  0  0  0  0  0  0  0  0  0  0
   -4.7583   16.3219    0.6773 H   0  0  0  0  0  0  0  0  0  0  0  0
   -5.5843   15.0928    1.6347 H   0  0  0  0  0  0  0  0  0  0  0  0
   -4.9935   13.3249    0.0510 H   0  0  0  0  0  0  0  0  0  0  0  0
   -5.9228   15.8017   -1.4672 H   0  0  0  0  0  0  0  0  0  0  0  0
   -6.9614   14.6906   -0.5542 H   0  0  0  0  0  0  0  0  0  0  0  0
   -6.1118   14.1211   -2.0039 H   0  0  0  0  0  0  0  0  0  0  0  0
   -3.6480   14.1321   -2.0340 H   0  0  0  0  0  0  0  0  0  0  0  0
   -3.4278   15.2154    2.6654 H   0  0  0  0  0  0  0  0  0  0  0  0
  1  3  1  0  0  0  0
  1  8  2  0  0  0  0
  2  8  1  0  0  0  0
  2  9  2  0  0  0  0
  3  4  2  0  0  0  0
  3 10  1  0  0  0  0
  4  9  1  0  0  0  0
  4 11  1  0  0  0  0
  5  6  1  0  0  0  0
  5 11  1  0  0  0  0
  6  7  1  0  0  0  0
  6 10  1  0  0  0  0
  1 12  1  0  0  0  0
  2 13  1  0  0  0  0
  5 14  1  0  0  0  0
  5 15  1  0  0  0  0
  6 16  1  0  0  0  0
  7 17  1  0  0  0  0
  7 18  1  0  0  0  0
  7 19  1  0  0  0  0
 10 20  1  0  0  0  0
 11 21  1  0  0  0  0
M  END
> <HYBRID receptor title>
5S18(A) > WOY(A-201)

> <HYBRID receptor filename>
data/docking/5s18.oedu

> <HYBRID Chemgauss4 score>
-5.802169

> <HYBRID receptor title>
5S18(A) > WOY(A-201)

> <HYBRID receptor filename>
data/docking/5s18.oedu

> <Dock Type>
Hybrid

$$$$
MOL0063
  -OEChem-07032400353D

 22 23  0     1  0  0  0  0  0999 V2000
   -2.8417   15.2560    1.2523 C   0  0  0  0  0  0  0  0  0  0  0  0
   -0.6903   14.7723    0.7067 C   0  0  0  0  0  0  0  0  0  0  0  0
   -3.2221   15.2208   -0.0784 C   0  0  0  0  0  0  0  0  0  0  0  0
   -2.2139   14.9174   -0.9862 C   0  0  0  0  0  0  0  0  0  0  0  0
   -4.6460   15.4185   -0.5123 C   0  0  0  0  0  0  0  0  0  0  0  0
   -2.5212   14.8852   -2.4592 C   0  0  0  0  0  0  0  0  0  0  0  0
   -4.0202   14.7478   -2.7484 C   0  0  0  0  0  0  0  0  0  0  0  0
   -6.1815   15.7421   -2.3441 C   0  0  0  0  0  0  0  0  0  0  0  0
   -1.5809   15.0405    1.6798 N   0  0  0  0  0  0  0  0  0  0  0  0
   -0.9320   14.6990   -0.6159 N   0  0  0  0  0  0  0  0  0  0  0  0
   -4.7740   15.7237   -1.9496 N   0  0  1  0  0  0  0  0  0  0  0  0
   -3.5611   15.4619    2.0386 H   0  0  0  0  0  0  0  0  0  0  0  0
    0.3312   14.5970    1.0214 H   0  0  0  0  0  0  0  0  0  0  0  0
   -5.2056   14.5082   -0.2584 H   0  0  0  0  0  0  0  0  0  0  0  0
   -5.0745   16.2506    0.0600 H   0  0  0  0  0  0  0  0  0  0  0  0
   -2.1451   15.8160   -2.9023 H   0  0  0  0  0  0  0  0  0  0  0  0
   -1.9832   14.0537   -2.9288 H   0  0  0  0  0  0  0  0  0  0  0  0
   -4.1781   14.9227   -3.8197 H   0  0  0  0  0  0  0  0  0  0  0  0
   -4.3564   13.7245   -2.5326 H   0  0  0  0  0  0  0  0  0  0  0  0
   -6.2792   15.9683   -3.4098 H   0  0  0  0  0  0  0  0  0  0  0  0
   -6.6416   14.7696   -2.1481 H   0  0  0  0  0  0  0  0  0  0  0  0
   -6.7238   16.5008   -1.7730 H   0  0  0  0  0  0  0  0  0  0  0  0
  1  3  1  0  0  0  0
  1  9  2  0  0  0  0
  2  9  1  0  0  0  0
  2 10  2  0  0  0  0
  3  4  2  0  0  0  0
  3  5  1  0  0  0  0
  4  6  1  0  0  0  0
  4 10  1  0  0  0  0
  5 11  1  0  0  0  0
  6  7  1  0  0  0  0
  7 11  1  0  0  0  0
  8 11  1  0  0  0  0
  1 12  1  0  0  0  0
  2 13  1  0  0  0  0
  5 14  1  0  0  0  0
  5 15  1  0  0  0  0
  6 16  1  0  0  0  0
  6 17  1  0  0  0  0
  7 18  1  0  0  0  0
  7 19  1  0  0  0  0
  8 20  1  0  0  0  0
  8 21  1  0  0  0  0
  8 22  1  0  0  0  0
M  END
> <HYBRID receptor title>
5S18(A) > WOY(A-201)

> <HYBRID receptor filename>
data/docking/5s18.oedu

> <HYBRID Chemgauss4 score>
-5.792095

> <HYBRID receptor title>
5S18(A) > WOY(A-201)

> <HYBRID receptor filename>
data/docking/5s18.oedu

> <Dock Type>
Hybrid

$$$$
MOL0106
  -OEChem-07032400353D

 19 20  0     1  0  0  0  0  0999 V2000
   -2.6181   15.2762    0.9780 C   0  0  0  0  0  0  0  0  0  0  0  0
   -0.3830   14.7776    0.8930 C   0  0  0  0  0  0  0  0  0  0  0  0
   -2.7111   15.0582   -0.3705 C   0  0  0  0  0  0  0  0  0  0  0  0
   -1.5494   14.6860   -1.0275 C   0  0  0  0  0  0  0  0  0  0  0  0
   -3.8824   15.0982   -1.2867 C   0  0  0  0  0  0  0  0  0  0  0  0
   -3.1723   15.1675   -2.6503 C   0  0  0  0  0  0  0  0  0  0  0  0
   -1.8364   14.4112   -2.4818 C   0  0  1  0  0  0  0  0  0  0  0  0
   -1.4496   15.1489    1.6435 N   0  0  0  0  0  0  0  0  0  0  0  0
   -0.3588   14.5228   -0.4322 N   0  0  0  0  0  0  0  0  0  0  0  0
   -0.8205   14.9072   -3.3940 N   0  0  0  0  0  0  0  0  0  0  0  0
   -3.4751   15.5574    1.5780 H   0  0  0  0  0  0  0  0  0  0  0  0
    0.5574   14.6691    1.4204 H   0  0  0  0  0  0  0  0  0  0  0  0
   -4.4725   14.1807   -1.1950 H   0  0  0  0  0  0  0  0  0  0  0  0
   -4.5174   15.9730   -1.1223 H   0  0  0  0  0  0  0  0  0  0  0  0
   -3.7854   14.7553   -3.4587 H   0  0  0  0  0  0  0  0  0  0  0  0
   -2.9888   16.2243   -2.8947 H   0  0  0  0  0  0  0  0  0  0  0  0
   -1.9819   13.3395   -2.6191 H   0  0  0  0  0  0  0  0  0  0  0  0
   -1.0989   14.7018   -4.3519 H   0  0  0  0  0  0  0  0  0  0  0  0
    0.0500   14.4023   -3.2360 H   0  0  0  0  0  0  0  0  0  0  0  0
  1  3  1  0  0  0  0
  1  8  2  0  0  0  0
  2  8  1  0  0  0  0
  2  9  2  0  0  0  0
  3  4  2  0  0  0  0
  3  5  1  0  0  0  0
  4  7  1  0  0  0  0
  4  9  1  0  0  0  0
  5  6  1  0  0  0  0
  6  7  1  0  0  0  0
  7 10  1  0  0  0  0
  1 11  1  0  0  0  0
  2 12  1  0  0  0  0
  5 13  1  0  0  0  0
  5 14  1  0  0  0  0
  6 15  1  0  0  0  0
  6 16  1  0  0  0  0
  7 17  1  0  0  0  0
 10 18  1  0  0  0  0
 10 19  1  0  0  0  0
M  END
> <HYBRID receptor title>
5S18(A) > WOY(A-201)

> <HYBRID receptor filename>
data/docking/5s18.oedu

> <HYBRID Chemgauss4 score>
-5.781985

> <HYBRID receptor title>
5S18(A) > WOY(A-201)

> <HYBRID receptor filename>
data/docking/5s18.oedu

> <Dock Type>
Hybrid

$$$$
MOL0137
  -OEChem-07032400353D

 26 27  0     1  0  0  0  0  0999 V2000
   -2.6353   14.9910    1.2570 C   0  0  0  0  0  0  0  0  0  0  0  0
   -0.3849   14.8313    0.9952 C   0  0  0  0  0  0  0  0  0  0  0  0
   -2.8273   14.9988   -0.1143 C   0  0  0  0  0  0  0  0  0  0  0  0
   -1.6765   14.8951   -0.8882 C   0  0  0  0  0  0  0  0  0  0  0  0
   -4.1925   15.0395   -0.7303 C   0  0  0  0  0  0  0  0  0  0  0  0
   -1.7682   14.9364   -2.3943 C   0  0  0  0  0  0  0  0  0  0  0  0
   -4.1455   15.3314   -2.2354 C   0  0  0  0  0  0  0  0  0  0  0  0
   -3.3266   13.1594   -2.9877 C   0  0  0  0  0  0  0  0  0  0  0  0
   -4.7081   12.8822   -3.5515 C   0  0  0  0  0  0  0  0  0  0  0  0
   -1.4252   14.9127    1.8442 N   0  0  0  0  0  0  0  0  0  0  0  0
   -0.4372   14.8200   -0.3510 N   0  0  0  0  0  0  0  0  0  0  0  0
   -3.0902   14.6009   -2.9505 N   0  0  2  0  0  0  0  0  0  0  0  0
   -4.7996   13.4183   -4.8653 O   0  0  0  0  0  0  0  0  0  0  0  0
   -3.4745   15.0471    1.9430 H   0  0  0  0  0  0  0  0  0  0  0  0
    0.5997   14.7684    1.4404 H   0  0  0  0  0  0  0  0  0  0  0  0
   -4.6733   14.0682   -0.5627 H   0  0  0  0  0  0  0  0  0  0  0  0
   -4.8021   15.8056   -0.2385 H   0  0  0  0  0  0  0  0  0  0  0  0
   -1.4544   15.9476   -2.7176 H   0  0  0  0  0  0  0  0  0  0  0  0
   -1.0216   14.2296   -2.8006 H   0  0  0  0  0  0  0  0  0  0  0  0
   -5.1426   15.0790   -2.6607 H   0  0  0  0  0  0  0  0  0  0  0  0
   -4.0329   16.4288   -2.4004 H   0  0  0  0  0  0  0  0  0  0  0  0
   -2.5561   12.7009   -3.6150 H   0  0  0  0  0  0  0  0  0  0  0  0
   -3.2346   12.7728   -1.9680 H   0  0  0  0  0  0  0  0  0  0  0  0
   -4.9192   11.8086   -3.5938 H   0  0  0  0  0  0  0  0  0  0  0  0
   -5.4687   13.3700   -2.9342 H   0  0  0  0  0  0  0  0  0  0  0  0
   -5.6938   13.2198   -5.1863 H   0  0  0  0  0  0  0  0  0  0  0  0
  1  3  1  0  0  0  0
  1 10  2  0  0  0  0
  2 10  1  0  0  0  0
  2 11  2  0  0  0  0
  3  4  2  0  0  0  0
  3  5  1  0  0  0  0
  4  6  1  0  0  0  0
  4 11  1  0  0  0  0
  5  7  1  0  0  0  0
  6 12  1  0  0  0  0
  7 12  1  0  0  0  0
  8  9  1  0  0  0  0
  8 12  1  0  0  0  0
  9 13  1  0  0  0  0
  1 14  1  0  0  0  0
  2 15  1  0  0  0  0
  5 16  1  0  0  0  0
  5 17  1  0  0  0  0
  6 18  1  0  0  0  0
  6 19  1  0  0  0  0
  7 20  1  0  0  0  0
  7 21  1  0  0  0  0
  8 22  1  0  0  0  0
  8 23  1  0  0  0  0
  9 24  1  0  0  0  0
  9 25  1  0  0  0  0
 13 26  1  0  0  0  0
M  END
> <HYBRID receptor title>
5S18(A) > WOY(A-201)

> <HYBRID receptor filename>
data/docking/5s18.oedu

> <HYBRID Chemgauss4 score>
-5.771685

> <HYBRID receptor title>
5S18(A) > WOY(A-201)

> <HYBRID receptor filename>
data/docking/5s18.oedu

> <Dock Type>
Hybrid

$$$$
MOL0065
  -OEChem-07032400353D

 17 18  0     0  0  0  0  0  0999 V2000
   -2.2955   14.8402   -1.0285 C   0  0  0  0  0  0  0  0  0  0  0  0
   -0.9896   14.6831   -0.5779 C   0  0  0  0  0  0  0  0  0  0  0  0
   -3.2589   15.1931   -0.1034 C   0  0  0  0  0  0  0  0  0  0  0  0
   -2.9128   15.3724    1.2328 C   0  0  0  0  0  0  0  0  0  0  0  0
   -0.7263   14.8836    0.7750 C   0  0  0  0  0  0  0  0  0  0  0  0
   -4.7235   15.4013   -0.2964 C   0  0  0  0  0  0  0  0  0  0  0  0
   -5.1512   15.9367    1.0865 C   0  0  0  0  0  0  0  0  0  0  0  0
   -1.6589   15.2243    1.6985 N   0  0  0  0  0  0  0  0  0  0  0  0
   -4.0392   15.7147    1.9931 N   0  0  0  0  0  0  0  0  0  0  0  0
    0.5353   14.7290    1.2067 F   0  0  0  0  0  0  0  0  0  0  0  0
   -2.5452   14.6880   -2.0725 H   0  0  0  0  0  0  0  0  0  0  0  0
   -0.1949   14.4089   -1.2629 H   0  0  0  0  0  0  0  0  0  0  0  0
   -4.9303   16.1294   -1.0860 H   0  0  0  0  0  0  0  0  0  0  0  0
   -5.2166   14.4497   -0.5182 H   0  0  0  0  0  0  0  0  0  0  0  0
   -5.3624   17.0109    1.0252 H   0  0  0  0  0  0  0  0  0  0  0  0
   -6.0583   15.4373    1.4419 H   0  0  0  0  0  0  0  0  0  0  0  0
   -4.0183   15.9418    2.9750 H   0  0  0  0  0  0  0  0  0  0  0  0
  1  2  2  0  0  0  0
  1  3  1  0  0  0  0
  2  5  1  0  0  0  0
  3  4  2  0  0  0  0
  3  6  1  0  0  0  0
  4  8  1  0  0  0  0
  4  9  1  0  0  0  0
  5  8  2  0  0  0  0
  5 10  1  0  0  0  0
  6  7  1  0  0  0  0
  7  9  1  0  0  0  0
  1 11  1  0  0  0  0
  2 12  1  0  0  0  0
  6 13  1  0  0  0  0
  6 14  1  0  0  0  0
  7 15  1  0  0  0  0
  7 16  1  0  0  0  0
  9 17  1  0  0  0  0
M  END
> <HYBRID receptor title>
5S18(A) > WOY(A-201)

> <HYBRID receptor filename>
data/docking/5s18.oedu

> <HYBRID Chemgauss4 score>
-5.756986

> <HYBRID receptor title>
5S18(A) > WOY(A-201)

> <HYBRID receptor filename>
data/docking/5s18.oedu

> <Dock Type>
Hybrid

$$$$
MOL0001
  -OEChem-07032400353D

 19 20  0     0  0  0  0  0  0999 V2000
   -2.5662   14.8580    1.3409 C   0  0  0  0  0  0  0  0  0  0  0  0
   -0.3343   14.7803    0.9276 C   0  0  0  0  0  0  0  0  0  0  0  0
   -2.8493   14.8822   -0.0143 C   0  0  0  0  0  0  0  0  0  0  0  0
   -1.7480   14.8297   -0.8625 C   0  0  0  0  0  0  0  0  0  0  0  0
   -4.2539   14.8886   -0.5402 C   0  0  0  0  0  0  0  0  0  0  0  0
   -1.9512   14.8794   -2.3538 C   0  0  0  0  0  0  0  0  0  0  0  0
   -3.3841   14.5213   -2.7571 C   0  0  0  0  0  0  0  0  0  0  0  0
   -1.3173   14.8112    1.8463 N   0  0  0  0  0  0  0  0  0  0  0  0
   -0.4743   14.7887   -0.4117 N   0  0  0  0  0  0  0  0  0  0  0  0
   -4.3557   15.2721   -1.9555 N   0  0  0  0  0  0  0  0  0  0  0  0
   -3.3590   14.8784    2.0821 H   0  0  0  0  0  0  0  0  0  0  0  0
    0.6800   14.7433    1.3063 H   0  0  0  0  0  0  0  0  0  0  0  0
   -4.6955   13.8898   -0.4272 H   0  0  0  0  0  0  0  0  0  0  0  0
   -4.8590   15.5777    0.0645 H   0  0  0  0  0  0  0  0  0  0  0  0
   -1.7090   15.8808   -2.7255 H   0  0  0  0  0  0  0  0  0  0  0  0
   -1.2498   14.1738   -2.8146 H   0  0  0  0  0  0  0  0  0  0  0  0
   -3.5486   14.7190   -3.8264 H   0  0  0  0  0  0  0  0  0  0  0  0
   -3.5477   13.4455   -2.6120 H   0  0  0  0  0  0  0  0  0  0  0  0
   -5.2953   15.0672   -2.2914 H   0  0  0  0  0  0  0  0  0  0  0  0
  1  3  1  0  0  0  0
  1  8  2  0  0  0  0
  2  8  1  0  0  0  0
  2  9  2  0  0  0  0
  3  4  2  0  0  0  0
  3  5  1  0  0  0  0
  4  6  1  0  0  0  0
  4  9  1  0  0  0  0
  5 10  1  0  0  0  0
  6  7  1  0  0  0  0
  7 10  1  0  0  0  0
  1 11  1  0  0  0  0
  2 12  1  0  0  0  0
  5 13  1  0  0  0  0
  5 14  1  0  0  0  0
  6 15  1  0  0  0  0
  6 16  1  0  0  0  0
  7 17  1  0  0  0  0
  7 18  1  0  0  0  0
 10 19  1  0  0  0  0
M  END
> <HYBRID receptor title>
5S18(A) > WOY(A-201)

> <HYBRID receptor filename>
data/docking/5s18.oedu

> <HYBRID Chemgauss4 score>
-5.744287

> <HYBRID receptor title>
5S18(A) > WOY(A-201)

> <HYBRID receptor filename>
data/docking/5s18.oedu

> <Dock Type>
Hybrid

$$$$
MOL0071
  -OEChem-07032400353D

 16 17  0     0  0  0  0  0  0999 V2000
   -1.3328   14.8679   -0.9191 C   0  0  0  0  0  0  0  0  0  0  0  0
   -2.4645   15.1470   -0.1994 C   0  0  0  0  0  0  0  0  0  0  0  0
   -2.3374   15.3169    1.1689 C   0  0  0  0  0  0  0  0  0  0  0  0
   -0.1132   14.9331    1.0125 C   0  0  0  0  0  0  0  0  0  0  0  0
   -3.8737   15.3404   -0.6336 C   0  0  0  0  0  0  0  0  0  0  0  0
   -4.6016   15.4742    0.7220 C   0  0  0  0  0  0  0  0  0  0  0  0
   -0.1253   14.7504   -0.3296 N   0  0  0  0  0  0  0  0  0  0  0  0
   -1.1631   15.2165    1.8131 N   0  0  0  0  0  0  0  0  0  0  0  0
   -3.5798   15.6046    1.7470 N   0  0  0  0  0  0  0  0  0  0  0  0
    1.7587   14.7552    1.9573 I   0  0  0  0  0  0  0  0  0  0  0  0
   -1.3505   14.7296   -1.9934 H   0  0  0  0  0  0  0  0  0  0  0  0
   -3.9706   16.2565   -1.2246 H   0  0  0  0  0  0  0  0  0  0  0  0
   -4.2447   14.4818   -1.2007 H   0  0  0  0  0  0  0  0  0  0  0  0
   -5.2760   16.3369    0.7254 H   0  0  0  0  0  0  0  0  0  0  0  0
   -5.2039   14.5791    0.9167 H   0  0  0  0  0  0  0  0  0  0  0  0
   -3.7398   15.7240    2.7349 H   0  0  0  0  0  0  0  0  0  0  0  0
  1  2  1  0  0  0  0
  1  7  2  0  0  0  0
  2  3  2  0  0  0  0
  2  5  1  0  0  0  0
  3  8  1  0  0  0  0
  3  9  1  0  0  0  0
  4  7  1  0  0  0  0
  4  8  2  0  0  0  0
  4 10  1  0  0  0  0
  5  6  1  0  0  0  0
  6  9  1  0  0  0  0
  1 11  1  0  0  0  0
  5 12  1  0  0  0  0
  5 13  1  0  0  0  0
  6 14  1  0  0  0  0
  6 15  1  0  0  0  0
  9 16  1  0  0  0  0
M  END
> <HYBRID receptor title>
5S18(A) > WOY(A-201)

> <HYBRID receptor filename>
data/docking/5s18.oedu

> <HYBRID Chemgauss4 score>
-5.722754

> <HYBRID receptor title>
5S18(A) > WOY(A-201)

> <HYBRID receptor filename>
data/docking/5s18.oedu

> <Dock Type>
Hybrid

$$$$
MOL0039
  -OEChem-07032400353D

 22 23  0     1  0  0  0  0  0999 V2000
   -2.4699   14.8119    1.5159 C   0  0  0  0  0  0  0  0  0  0  0  0
   -0.2463   14.5388    1.1423 C   0  0  0  0  0  0  0  0  0  0  0  0
   -2.7242   14.8738    0.1561 C   0  0  0  0  0  0  0  0  0  0  0  0
   -1.6179   14.7326   -0.6745 C   0  0  0  0  0  0  0  0  0  0  0  0
   -4.1120   15.0081   -0.3924 C   0  0  0  0  0  0  0  0  0  0  0  0
   -1.7764   14.8268   -2.1727 C   0  0  0  0  0  0  0  0  0  0  0  0
   -4.1182   15.3448   -1.8889 C   0  0  0  0  0  0  0  0  0  0  0  0
   -3.4570   13.1567   -2.7427 C   0  0  0  0  0  0  0  0  0  0  0  0
   -1.2403   14.6495    2.0421 N   0  0  0  0  0  0  0  0  0  0  0  0
   -0.3612   14.5733   -0.1996 N   0  0  0  0  0  0  0  0  0  0  0  0
   -3.1393   14.5814   -2.6746 N   0  0  2  0  0  0  0  0  0  0  0  0
   -3.2722   14.8915    2.2425 H   0  0  0  0  0  0  0  0  0  0  0  0
    0.7528   14.4085    1.5379 H   0  0  0  0  0  0  0  0  0  0  0  0
   -4.6378   14.0594   -0.2305 H   0  0  0  0  0  0  0  0  0  0  0  0
   -4.6547   15.7900    0.1501 H   0  0  0  0  0  0  0  0  0  0  0  0
   -1.4221   15.8292   -2.4809 H   0  0  0  0  0  0  0  0  0  0  0  0
   -1.0899   14.0939   -2.6347 H   0  0  0  0  0  0  0  0  0  0  0  0
   -5.1464   15.1605   -2.2733 H   0  0  0  0  0  0  0  0  0  0  0  0
   -3.9525   16.4392   -2.0268 H   0  0  0  0  0  0  0  0  0  0  0  0
   -4.4733   13.0068   -3.1182 H   0  0  0  0  0  0  0  0  0  0  0  0
   -2.7574   12.6450   -3.4097 H   0  0  0  0  0  0  0  0  0  0  0  0
   -3.3794   12.7047   -1.7500 H   0  0  0  0  0  0  0  0  0  0  0  0
  1  3  1  0  0  0  0
  1  9  2  0  0  0  0
  2  9  1  0  0  0  0
  2 10  2  0  0  0  0
  3  4  2  0  0  0  0
  3  5  1  0  0  0  0
  4  6  1  0  0  0  0
  4 10  1  0  0  0  0
  5  7  1  0  0  0  0
  6 11  1  0  0  0  0
  7 11  1  0  0  0  0
  8 11  1  0  0  0  0
  1 12  1  0  0  0  0
  2 13  1  0  0  0  0
  5 14  1  0  0  0  0
  5 15  1  0  0  0  0
  6 16  1  0  0  0  0
  6 17  1  0  0  0  0
  7 18  1  0  0  0  0
  7 19  1  0  0  0  0
  8 20  1  0  0  0  0
  8 21  1  0  0  0  0
  8 22  1  0  0  0  0
M  END
> <HYBRID receptor title>
5S18(A) > WOY(A-201)

> <HYBRID receptor filename>
data/docking/5s18.oedu

> <HYBRID Chemgauss4 score>
-5.720435

> <HYBRID receptor title>
5S18(A) > WOY(A-201)

> <HYBRID receptor filename>
data/docking/5s18.oedu

> <Dock Type>
Hybrid

$$$$
MOL0096
  -OEChem-07032400353D

 22 23  0     1  0  0  0  0  0999 V2000
   -3.0493   14.8341    1.5576 C   0  0  0  0  0  0  0  0  0  0  0  0
   -0.9093   14.6651    0.8300 C   0  0  0  0  0  0  0  0  0  0  0  0
   -3.5330   14.8303    0.2576 C   0  0  0  0  0  0  0  0  0  0  0  0
   -2.5744   14.7062   -0.7460 C   0  0  0  0  0  0  0  0  0  0  0  0
   -5.0050   14.8971   -0.0185 C   0  0  0  0  0  0  0  0  0  0  0  0
   -5.3173   15.2650   -1.4674 C   0  0  0  0  0  0  0  0  0  0  0  0
   -4.4675   14.4305   -2.4202 C   0  0  0  0  0  0  0  0  0  0  0  0
   -2.9744   14.7281   -2.2080 C   0  0  2  0  0  0  0  0  0  0  0  0
   -1.7430   14.7549    1.8793 N   0  0  0  0  0  0  0  0  0  0  0  0
   -1.2479   14.6416   -0.4727 N   0  0  0  0  0  0  0  0  0  0  0  0
   -2.1780   13.7971   -3.0130 N   0  0  0  0  0  0  0  0  0  0  0  0
   -3.7229   14.9046    2.4063 H   0  0  0  0  0  0  0  0  0  0  0  0
    0.1485   14.6057    1.0549 H   0  0  0  0  0  0  0  0  0  0  0  0
   -5.4421   13.9169    0.2094 H   0  0  0  0  0  0  0  0  0  0  0  0
   -5.4791   15.6318    0.6430 H   0  0  0  0  0  0  0  0  0  0  0  0
   -6.3822   15.1025   -1.6679 H   0  0  0  0  0  0  0  0  0  0  0  0
   -5.1174   16.3310   -1.6350 H   0  0  0  0  0  0  0  0  0  0  0  0
   -4.6802   13.3658   -2.2513 H   0  0  0  0  0  0  0  0  0  0  0  0
   -4.7506   14.6521   -3.4566 H   0  0  0  0  0  0  0  0  0  0  0  0
   -2.7733   15.7504   -2.5702 H   0  0  0  0  0  0  0  0  0  0  0  0
   -1.1989   14.0493   -2.9279 H   0  0  0  0  0  0  0  0  0  0  0  0
   -2.4276   13.9155   -3.9896 H   0  0  0  0  0  0  0  0  0  0  0  0
  1  3  1  0  0  0  0
  1  9  2  0  0  0  0
  2  9  1  0  0  0  0
  2 10  2  0  0  0  0
  3  4  2  0  0  0  0
  3  5  1  0  0  0  0
  4  8  1  0  0  0  0
  4 10  1  0  0  0  0
  5  6  1  0  0  0  0
  6  7  1  0  0  0  0
  7  8  1  0  0  0  0
  8 11  1  0  0  0  0
  1 12  1  0  0  0  0
  2 13  1  0  0  0  0
  5 14  1  0  0  0  0
  5 15  1  0  0  0  0
  6 16  1  0  0  0  0
  6 17  1  0  0  0  0
  7 18  1  0  0  0  0
  7 19  1  0  0  0  0
  8 20  1  0  0  0  0
 11 21  1  0  0  0  0
 11 22  1  0  0  0  0
M  END
> <HYBRID receptor title>
5S18(A) > WOY(A-201)

> <HYBRID receptor filename>
data/docking/5s18.oedu

> <HYBRID Chemgauss4 score>
-5.715005

> <HYBRID receptor title>
5S18(A) > WOY(A-201)

> <HYBRID receptor filename>
data/docking/5s18.oedu

> <Dock Type>
Hybrid

$$$$
MOL0126
  -OEChem-07032400353D

 22 23  0     1  0  0  0  0  0999 V2000
   -3.1438   14.9922    1.5705 C   0  0  0  0  0  0  0  0  0  0  0  0
   -0.9630   14.8860    0.9615 C   0  0  0  0  0  0  0  0  0  0  0  0
   -3.5590   14.6832    0.2835 C   0  0  0  0  0  0  0  0  0  0  0  0
   -2.5446   14.5104   -0.6560 C   0  0  0  0  0  0  0  0  0  0  0  0
   -5.0162   14.6046   -0.0596 C   0  0  0  0  0  0  0  0  0  0  0  0
   -5.2717   13.8969   -1.3884 C   0  0  0  0  0  0  0  0  0  0  0  0
   -4.3277   14.4291   -2.4617 C   0  0  0  0  0  0  0  0  0  0  0  0
   -2.8672   14.1315   -2.0875 C   0  0  1  0  0  0  0  0  0  0  0  0
   -1.8534   15.0997    1.9442 N   0  0  0  0  0  0  0  0  0  0  0  0
   -1.2323   14.5901   -0.3239 N   0  0  0  0  0  0  0  0  0  0  0  0
   -1.9953   14.8105   -3.0500 N   0  0  0  0  0  0  0  0  0  0  0  0
   -3.8632   15.1662    2.3649 H   0  0  0  0  0  0  0  0  0  0  0  0
    0.0834   14.9587    1.2311 H   0  0  0  0  0  0  0  0  0  0  0  0
   -5.5617   14.0783    0.7324 H   0  0  0  0  0  0  0  0  0  0  0  0
   -5.4120   15.6265   -0.1109 H   0  0  0  0  0  0  0  0  0  0  0  0
   -5.1231   12.8158   -1.2716 H   0  0  0  0  0  0  0  0  0  0  0  0
   -6.3140   14.0472   -1.6914 H   0  0  0  0  0  0  0  0  0  0  0  0
   -4.5688   13.9654   -3.4262 H   0  0  0  0  0  0  0  0  0  0  0  0
   -4.4886   15.5097   -2.5771 H   0  0  0  0  0  0  0  0  0  0  0  0
   -2.6967   13.0562   -2.1769 H   0  0  0  0  0  0  0  0  0  0  0  0
   -2.2064   14.4639   -3.9797 H   0  0  0  0  0  0  0  0  0  0  0  0
   -1.0331   14.5556   -2.8528 H   0  0  0  0  0  0  0  0  0  0  0  0
  1  3  1  0  0  0  0
  1  9  2  0  0  0  0
  2  9  1  0  0  0  0
  2 10  2  0  0  0  0
  3  4  2  0  0  0  0
  3  5  1  0  0  0  0
  4  8  1  0  0  0  0
  4 10  1  0  0  0  0
  5  6  1  0  0  0  0
  6  7  1  0  0  0  0
  7  8  1  0  0  0  0
  8 11  1  0  0  0  0
  1 12  1  0  0  0  0
  2 13  1  0  0  0  0
  5 14  1  0  0  0  0
  5 15  1  0  0  0  0
  6 16  1  0  0  0  0
  6 17  1  0  0  0  0
  7 18  1  0  0  0  0
  7 19  1  0  0  0  0
  8 20  1  0  0  0  0
 11 21  1  0  0  0  0
 11 22  1  0  0  0  0
M  END
> <HYBRID receptor title>
5S18(A) > WOY(A-201)

> <HYBRID receptor filename>
data/docking/5s18.oedu

> <HYBRID Chemgauss4 score>
-5.711315

> <HYBRID receptor title>
5S18(A) > WOY(A-201)

> <HYBRID receptor filename>
data/docking/5s18.oedu

> <Dock Type>
Hybrid

$$$$
MOL0159
  -OEChem-07032400353D

 23 25  0     1  0  0  0  0  0999 V2000
   -3.0414   15.2693    1.2845 C   0  0  0  0  0  0  0  0  0  0  0  0
   -0.8972   14.5838    0.8949 C   0  0  0  0  0  0  0  0  0  0  0  0
   -3.2830   15.2406   -0.0642 C   0  0  0  0  0  0  0  0  0  0  0  0
   -2.2467   14.8634   -0.9001 C   0  0  0  0  0  0  0  0  0  0  0  0
   -4.5083   15.5740   -0.8400 C   0  0  0  0  0  0  0  0  0  0  0  0
   -5.3105   12.9706   -2.0113 C   0  0  0  0  0  0  0  0  0  0  0  0
   -6.3186   13.9534   -2.5383 C   0  0  0  0  0  0  0  0  0  0  0  0
   -4.8634   14.1138   -2.8802 C   0  0  0  0  0  0  0  0  0  0  0  0
   -4.0684   15.2456   -2.2929 C   0  0  2  0  0  0  0  0  0  0  0  0
   -1.8397   14.9389    1.7996 N   0  0  0  0  0  0  0  0  0  0  0  0
   -1.0277   14.5252   -0.4483 N   0  0  0  0  0  0  0  0  0  0  0  0
   -2.6560   14.8886   -2.2377 N   0  0  0  0  0  0  0  0  0  0  0  0
   -3.8007   15.5590    2.0007 H   0  0  0  0  0  0  0  0  0  0  0  0
    0.0737   14.3165    1.2953 H   0  0  0  0  0  0  0  0  0  0  0  0
   -5.3623   14.9761   -0.5074 H   0  0  0  0  0  0  0  0  0  0  0  0
   -4.7339   16.6407   -0.7376 H   0  0  0  0  0  0  0  0  0  0  0  0
   -5.0816   13.0027   -0.9533 H   0  0  0  0  0  0  0  0  0  0  0  0
   -5.3021   11.9770   -2.4423 H   0  0  0  0  0  0  0  0  0  0  0  0
   -6.9866   13.6184   -3.3223 H   0  0  0  0  0  0  0  0  0  0  0  0
   -6.7651   14.6434   -1.8330 H   0  0  0  0  0  0  0  0  0  0  0  0
   -4.5567   13.8845   -3.8936 H   0  0  0  0  0  0  0  0  0  0  0  0
   -4.1992   16.1309   -2.9266 H   0  0  0  0  0  0  0  0  0  0  0  0
   -2.0755   14.6346   -3.0219 H   0  0  0  0  0  0  0  0  0  0  0  0
  1  3  1  0  0  0  0
  1 10  2  0  0  0  0
  2 10  1  0  0  0  0
  2 11  2  0  0  0  0
  3  4  2  0  0  0  0
  3  5  1  0  0  0  0
  4 11  1  0  0  0  0
  4 12  1  0  0  0  0
  5  9  1  0  0  0  0
  6  7  1  0  0  0  0
  6  8  1  0  0  0  0
  7  8  1  0  0  0  0
  8  9  1  0  0  0  0
  9 12  1  0  0  0  0
  1 13  1  0  0  0  0
  2 14  1  0  0  0  0
  5 15  1  0  0  0  0
  5 16  1  0  0  0  0
  6 17  1  0  0  0  0
  6 18  1  0  0  0  0
  7 19  1  0  0  0  0
  7 20  1  0  0  0  0
  8 21  1  0  0  0  0
  9 22  1  0  0  0  0
 12 23  1  0  0  0  0
M  END
> <HYBRID receptor title>
5S18(A) > WOY(A-201)

> <HYBRID receptor filename>
data/docking/5s18.oedu

> <HYBRID Chemgauss4 score>
-5.708342

> <HYBRID receptor title>
5S18(A) > WOY(A-201)

> <HYBRID receptor filename>
data/docking/5s18.oedu

> <Dock Type>
Hybrid

$$$$
MOL0143
  -OEChem-07032400353D

 30 32  0     0  0  0  0  0  0999 V2000
   -0.6603   14.7455    0.8227 C   0  0  0  0  0  0  0  0  0  0  0  0
   -2.8569   15.0088    1.3869 C   0  0  0  0  0  0  0  0  0  0  0  0
   -1.0239   14.5624   -0.4877 C   0  0  0  0  0  0  0  0  0  0  0  0
   -2.3701   14.6177   -0.7878 C   0  0  0  0  0  0  0  0  0  0  0  0
   -3.8353   14.2928   -2.7353 C   0  0  0  0  0  0  0  0  0  0  0  0
   -0.1826   14.2633   -1.6724 C   0  0  0  0  0  0  0  0  0  0  0  0
   -5.0489   13.2879   -6.0711 C   0  0  0  0  0  0  0  0  0  0  0  0
   -3.7068   13.8969   -6.4435 C   0  0  0  0  0  0  0  0  0  0  0  0
   -1.2258   14.2786   -2.7986 C   0  0  0  0  0  0  0  0  0  0  0  0
   -5.2886   13.8330   -4.6748 C   0  0  0  0  0  0  0  0  0  0  0  0
   -2.9393   13.8815   -5.1274 C   0  0  0  0  0  0  0  0  0  0  0  0
   -1.5673   14.9774    1.7938 N   0  0  0  0  0  0  0  0  0  0  0  0
   -3.3246   14.8381    0.1324 N   0  0  0  0  0  0  0  0  0  0  0  0
   -2.5660   14.4127   -2.1791 N   0  0  0  0  0  0  0  0  0  0  0  0
   -3.9600   13.9807   -4.0864 N   0  0  0  0  0  0  0  0  0  0  0  0
   -4.8576   14.4414   -2.0484 O   0  0  0  0  0  0  0  0  0  0  0  0
    0.3742   14.7082    1.1429 H   0  0  0  0  0  0  0  0  0  0  0  0
   -3.5978   15.1924    2.1559 H   0  0  0  0  0  0  0  0  0  0  0  0
    0.5839   15.0281   -1.8276 H   0  0  0  0  0  0  0  0  0  0  0  0
    0.2821   13.2768   -1.5794 H   0  0  0  0  0  0  0  0  0  0  0  0
   -5.8414   13.5633   -6.7723 H   0  0  0  0  0  0  0  0  0  0  0  0
   -4.9727   12.1946   -6.0435 H   0  0  0  0  0  0  0  0  0  0  0  0
   -3.1979   13.3346   -7.2312 H   0  0  0  0  0  0  0  0  0  0  0  0
   -3.8446   14.9286   -6.7883 H   0  0  0  0  0  0  0  0  0  0  0  0
   -1.0496   15.1415   -3.4465 H   0  0  0  0  0  0  0  0  0  0  0  0
   -1.1820   13.3609   -3.3922 H   0  0  0  0  0  0  0  0  0  0  0  0
   -5.7512   14.8261   -4.7090 H   0  0  0  0  0  0  0  0  0  0  0  0
   -5.9134   13.1751   -4.0630 H   0  0  0  0  0  0  0  0  0  0  0  0
   -2.4155   12.9292   -5.0081 H   0  0  0  0  0  0  0  0  0  0  0  0
   -2.2389   14.7168   -5.0688 H   0  0  0  0  0  0  0  0  0  0  0  0
  1  3  1  0  0  0  0
  1 12  2  0  0  0  0
  2 12  1  0  0  0  0
  2 13  2  0  0  0  0
  3  4  2  0  0  0  0
  3  6  1  0  0  0  0
  4 13  1  0  0  0  0
  4 14  1  0  0  0  0
  5 14  1  0  0  0  0
  5 15  1  0  0  0  0
  5 16  2  0  0  0  0
  6  9  1  0  0  0  0
  7  8  1  0  0  0  0
  7 10  1  0  0  0  0
  8 11  1  0  0  0  0
  9 14  1  0  0  0  0
 10 15  1  0  0  0  0
 11 15  1  0  0  0  0
  1 17  1  0  0  0  0
  2 18  1  0  0  0  0
  6 19  1  0  0  0  0
  6 20  1  0  0  0  0
  7 21  1  0  0  0  0
  7 22  1  0  0  0  0
  8 23  1  0  0  0  0
  8 24  1  0  0  0  0
  9 25  1  0  0  0  0
  9 26  1  0  0  0  0
 10 27  1  0  0  0  0
 10 28  1  0  0  0  0
 11 29  1  0  0  0  0
 11 30  1  0  0  0  0
M  END
> <HYBRID receptor title>
5S18(A) > WOY(A-201)

> <HYBRID receptor filename>
data/docking/5s18.oedu

> <HYBRID Chemgauss4 score>
-5.691126

> <HYBRID receptor title>
5S18(A) > WOY(A-201)

> <HYBRID receptor filename>
data/docking/5s18.oedu

> <Dock Type>
Hybrid

$$$$
MOL0153
  -OEChem-07032400353D

 17 18  0     0  0  0  0  0  0999 V2000
   -4.4424   14.3293   -0.1868 C   0  0  0  0  0  0  0  0  0  0  0  0
   -2.7553   14.6997    1.5618 C   0  0  0  0  0  0  0  0  0  0  0  0
   -2.4586   14.5268   -2.0391 C   0  0  0  0  0  0  0  0  0  0  0  0
   -0.5866   15.0036    0.9814 C   0  0  0  0  0  0  0  0  0  0  0  0
   -3.1246   14.5604    0.2266 C   0  0  0  0  0  0  0  0  0  0  0  0
   -2.0902   14.6654   -0.7108 C   0  0  0  0  0  0  0  0  0  0  0  0
   -4.6812   14.2088   -1.5436 C   0  0  0  0  0  0  0  0  0  0  0  0
   -1.4915   14.9222    1.9716 N   0  0  0  0  0  0  0  0  0  0  0  0
   -3.7185   14.3025   -2.4834 N   0  0  0  0  0  0  0  0  0  0  0  0
   -0.8151   14.8875   -0.3421 N   0  0  0  0  0  0  0  0  0  0  0  0
   -6.0405   13.9741   -1.9183 N   0  3  0  0  0  0  0  0  0  0  0  0
   -6.9042   13.8948   -1.0182 O   0  5  0  0  0  0  0  0  0  0  0  0
   -6.3149   13.8570   -3.1325 O   0  0  0  0  0  0  0  0  0  0  0  0
   -5.2451   14.2481    0.5412 H   0  0  0  0  0  0  0  0  0  0  0  0
   -3.4855   14.6339    2.3628 H   0  0  0  0  0  0  0  0  0  0  0  0
   -1.7142   14.5939   -2.8284 H   0  0  0  0  0  0  0  0  0  0  0  0
    0.4397   15.1824    1.2779 H   0  0  0  0  0  0  0  0  0  0  0  0
  1  5  2  0  0  0  0
  1  7  1  0  0  0  0
  2  5  1  0  0  0  0
  2  8  2  0  0  0  0
  3  6  2  0  0  0  0
  3  9  1  0  0  0  0
  4  8  1  0  0  0  0
  4 10  2  0  0  0  0
  5  6  1  0  0  0  0
  6 10  1  0  0  0  0
  7  9  2  0  0  0  0
  7 11  1  0  0  0  0
 11 12  1  0  0  0  0
 11 13  2  0  0  0  0
  1 14  1  0  0  0  0
  2 15  1  0  0  0  0
  3 16  1  0  0  0  0
  4 17  1  0  0  0  0
M  CHG  2  11   1  12  -1
M  END
> <HYBRID receptor title>
5S18(A) > WOY(A-201)

> <HYBRID receptor filename>
data/docking/5s18.oedu

> <HYBRID Chemgauss4 score>
-5.672665

> <HYBRID receptor title>
5S18(A) > WOY(A-201)

> <HYBRID receptor filename>
data/docking/5s18.oedu

> <Dock Type>
Hybrid

$$$$
MOL0002
  -OEChem-07032400353D

 19 20  0     0  0  0  0  0  0999 V2000
   -2.3244   14.9861    1.1848 C   0  0  0  0  0  0  0  0  0  0  0  0
   -0.0736   14.7685    0.9689 C   0  0  0  0  0  0  0  0  0  0  0  0
   -2.5111   14.7231   -0.1611 C   0  0  0  0  0  0  0  0  0  0  0  0
   -1.3581   14.4626   -0.8940 C   0  0  0  0  0  0  0  0  0  0  0  0
   -3.8708   14.6491   -0.7856 C   0  0  0  0  0  0  0  0  0  0  0  0
   -1.4509   14.1980   -2.3746 C   0  0  0  0  0  0  0  0  0  0  0  0
   -3.8091   14.6843   -2.3152 C   0  0  0  0  0  0  0  0  0  0  0  0
   -1.1161   15.0198    1.7817 N   0  0  0  0  0  0  0  0  0  0  0  0
   -0.1213   14.4914   -0.3484 N   0  0  0  0  0  0  0  0  0  0  0  0
   -2.7841   13.7618   -2.8085 N   0  0  0  0  0  0  0  0  0  0  0  0
   -3.1653   15.1856    1.8418 H   0  0  0  0  0  0  0  0  0  0  0  0
    0.9096   14.7904    1.4224 H   0  0  0  0  0  0  0  0  0  0  0  0
   -4.3783   13.7298   -0.4705 H   0  0  0  0  0  0  0  0  0  0  0  0
   -4.4617   15.4997   -0.4229 H   0  0  0  0  0  0  0  0  0  0  0  0
   -1.1883   15.1095   -2.9230 H   0  0  0  0  0  0  0  0  0  0  0  0
   -0.7103   13.4356   -2.6440 H   0  0  0  0  0  0  0  0  0  0  0  0
   -4.7839   14.4259   -2.7484 H   0  0  0  0  0  0  0  0  0  0  0  0
   -3.5766   15.7013   -2.6497 H   0  0  0  0  0  0  0  0  0  0  0  0
   -2.8146   13.7384   -3.8280 H   0  0  0  0  0  0  0  0  0  0  0  0
  1  3  1  0  0  0  0
  1  8  2  0  0  0  0
  2  8  1  0  0  0  0
  2  9  2  0  0  0  0
  3  4  2  0  0  0  0
  3  5  1  0  0  0  0
  4  6  1  0  0  0  0
  4  9  1  0  0  0  0
  5  7  1  0  0  0  0
  6 10  1  0  0  0  0
  7 10  1  0  0  0  0
  1 11  1  0  0  0  0
  2 12  1  0  0  0  0
  5 13  1  0  0  0  0
  5 14  1  0  0  0  0
  6 15  1  0  0  0  0
  6 16  1  0  0  0  0
  7 17  1  0  0  0  0
  7 18  1  0  0  0  0
 10 19  1  0  0  0  0
M  END
> <HYBRID receptor title>
5S18(A) > WOY(A-201)

> <HYBRID receptor filename>
data/docking/5s18.oedu

> <HYBRID Chemgauss4 score>
-5.669346

> <HYBRID receptor title>
5S18(A) > WOY(A-201)

> <HYBRID receptor filename>
data/docking/5s18.oedu

> <Dock Type>
Hybrid

$$$$
MOL0090
  -OEChem-07032400353D

 34 36  0     0  0  0  0  0  0999 V2000
   -0.5772   14.7374    1.2041 C   0  0  0  0  0  0  0  0  0  0  0  0
   -2.8199   15.1556    1.3536 C   0  0  0  0  0  0  0  0  0  0  0  0
   -0.7082   14.5451   -0.1475 C   0  0  0  0  0  0  0  0  0  0  0  0
   -1.9733   14.6821   -0.6844 C   0  0  0  0  0  0  0  0  0  0  0  0
   -3.0204   14.5124   -2.9107 C   0  0  0  0  0  0  0  0  0  0  0  0
    0.3179   14.2021   -1.1679 C   0  0  0  0  0  0  0  0  0  0  0  0
   -5.0722   12.9786   -5.6786 C   0  0  0  0  0  0  0  0  0  0  0  0
   -5.0746   14.4661   -5.3482 C   0  0  0  0  0  0  0  0  0  0  0  0
   -4.2208   12.1890   -4.6913 C   0  0  0  0  0  0  0  0  0  0  0  0
   -3.6576   15.0348   -5.2705 C   0  0  0  0  0  0  0  0  0  0  0  0
   -2.7922   12.7260   -4.6239 C   0  0  0  0  0  0  0  0  0  0  0  0
   -0.5254   14.1468   -2.4497 C   0  0  0  0  0  0  0  0  0  0  0  0
   -2.7291   14.2313   -4.3566 C   0  0  0  0  0  0  0  0  0  0  0  0
   -1.6297   15.0478    1.9899 N   0  0  0  0  0  0  0  0  0  0  0  0
   -3.0638   14.9885    0.0367 N   0  0  0  0  0  0  0  0  0  0  0  0
   -1.9202   14.4519   -2.0730 N   0  0  0  0  0  0  0  0  0  0  0  0
   -4.1705   14.7713   -2.5537 O   0  0  0  0  0  0  0  0  0  0  0  0
    0.3782   14.6508    1.7078 H   0  0  0  0  0  0  0  0  0  0  0  0
   -3.6731   15.4051    1.9730 H   0  0  0  0  0  0  0  0  0  0  0  0
    1.0849   14.9797   -1.2321 H   0  0  0  0  0  0  0  0  0  0  0  0
    0.7772   13.2326   -0.9541 H   0  0  0  0  0  0  0  0  0  0  0  0
   -6.0992   12.5969   -5.6669 H   0  0  0  0  0  0  0  0  0  0  0  0
   -4.6876   12.8294   -6.6950 H   0  0  0  0  0  0  0  0  0  0  0  0
   -5.6467   15.0112   -6.1076 H   0  0  0  0  0  0  0  0  0  0  0  0
   -5.5865   14.6257   -4.3914 H   0  0  0  0  0  0  0  0  0  0  0  0
   -4.6825   12.2232   -3.6975 H   0  0  0  0  0  0  0  0  0  0  0  0
   -4.1991   11.1343   -4.9894 H   0  0  0  0  0  0  0  0  0  0  0  0
   -3.2285   15.0358   -6.2801 H   0  0  0  0  0  0  0  0  0  0  0  0
   -3.7068   16.0814   -4.9475 H   0  0  0  0  0  0  0  0  0  0  0  0
   -2.2368   12.1761   -3.8552 H   0  0  0  0  0  0  0  0  0  0  0  0
   -2.2953   12.5229   -5.5806 H   0  0  0  0  0  0  0  0  0  0  0  0
   -0.1854   14.8815   -3.1879 H   0  0  0  0  0  0  0  0  0  0  0  0
   -0.4889   13.1551   -2.9139 H   0  0  0  0  0  0  0  0  0  0  0  0
   -1.6974   14.5680   -4.5163 H   0  0  0  0  0  0  0  0  0  0  0  0
  1  3  1  0  0  0  0
  1 14  2  0  0  0  0
  2 14  1  0  0  0  0
  2 15  2  0  0  0  0
  3  4  2  0  0  0  0
  3  6  1  0  0  0  0
  4 15  1  0  0  0  0
  4 16  1  0  0  0  0
  5 13  1  0  0  0  0
  5 16  1  0  0  0  0
  5 17  2  0  0  0  0
  6 12  1  0  0  0  0
  7  8  1  0  0  0  0
  7  9  1  0  0  0  0
  8 10  1  0  0  0  0
  9 11  1  0  0  0  0
 10 13  1  0  0  0  0
 11 13  1  0  0  0  0
 12 16  1  0  0  0  0
  1 18  1  0  0  0  0
  2 19  1  0  0  0  0
  6 20  1  0  0  0  0
  6 21  1  0  0  0  0
  7 22  1  0  0  0  0
  7 23  1  0  0  0  0
  8 24  1  0  0  0  0
  8 25  1  0  0  0  0
  9 26  1  0  0  0  0
  9 27  1  0  0  0  0
 10 28  1  0  0  0  0
 10 29  1  0  0  0  0
 11 30  1  0  0  0  0
 11 31  1  0  0  0  0
 12 32  1  0  0  0  0
 12 33  1  0  0  0  0
 13 34  1  0  0  0  0
M  END
> <HYBRID receptor title>
5S18(A) > WOY(A-201)

> <HYBRID receptor filename>
data/docking/5s18.oedu

> <HYBRID Chemgauss4 score>
-5.649296

> <HYBRID receptor title>
5S18(A) > WOY(A-201)

> <HYBRID receptor filename>
data/docking/5s18.oedu

> <Dock Type>
Hybrid

$$$$
MOL0136
  -OEChem-07032400353D

 21 22  0     1  0  0  0  0  0999 V2000
   -0.7151   14.5876   -0.8092 C   0  0  0  0  0  0  0  0  0  0  0  0
   -0.0521   14.7177    1.3527 C   0  0  0  0  0  0  0  0  0  0  0  0
   -2.0508   14.6361   -0.4428 C   0  0  0  0  0  0  0  0  0  0  0  0
   -2.3083   14.6962    0.9290 C   0  0  0  0  0  0  0  0  0  0  0  0
   -4.4190   14.8963   -0.9396 C   0  0  0  0  0  0  0  0  0  0  0  0
   -4.6896   14.3172    0.4545 C   0  0  2  0  0  0  0  0  0  0  0  0
   -6.0295   14.8040    0.9956 C   0  0  0  0  0  0  0  0  0  0  0  0
    0.3107   14.6299    0.0632 N   0  0  0  0  0  0  0  0  0  0  0  0
   -1.3072   14.7543    1.8395 N   0  0  0  0  0  0  0  0  0  0  0  0
   -3.0707   14.5823   -1.3748 N   0  0  0  0  0  0  0  0  0  0  0  0
   -3.6281   14.7000    1.3739 N   0  0  0  0  0  0  0  0  0  0  0  0
   -6.2524   14.2851    2.2134 F   0  0  0  0  0  0  0  0  0  0  0  0
   -7.0234   14.4268    0.1760 F   0  0  0  0  0  0  0  0  0  0  0  0
   -6.0308   16.1431    1.0896 F   0  0  0  0  0  0  0  0  0  0  0  0
   -0.4203   14.5179   -1.8521 H   0  0  0  0  0  0  0  0  0  0  0  0
    0.7491   14.7612    2.0802 H   0  0  0  0  0  0  0  0  0  0  0  0
   -5.1338   14.4886   -1.6631 H   0  0  0  0  0  0  0  0  0  0  0  0
   -4.5495   15.9860   -0.9375 H   0  0  0  0  0  0  0  0  0  0  0  0
   -4.7181   13.2217    0.3892 H   0  0  0  0  0  0  0  0  0  0  0  0
   -2.8461   14.6143   -2.3619 H   0  0  0  0  0  0  0  0  0  0  0  0
   -3.7928   14.7069    2.3732 H   0  0  0  0  0  0  0  0  0  0  0  0
  1  3  1  0  0  0  0
  1  8  2  0  0  0  0
  2  8  1  0  0  0  0
  2  9  2  0  0  0  0
  3  4  2  0  0  0  0
  3 10  1  0  0  0  0
  4  9  1  0  0  0  0
  4 11  1  0  0  0  0
  5  6  1  0  0  0  0
  5 10  1  0  0  0  0
  6  7  1  0  0  0  0
  6 11  1  0  0  0  0
  7 12  1  0  0  0  0
  7 13  1  0  0  0  0
  7 14  1  0  0  0  0
  1 15  1  0  0  0  0
  2 16  1  0  0  0  0
  5 17  1  0  0  0  0
  5 18  1  0  0  0  0
  6 19  1  0  0  0  0
 10 20  1  0  0  0  0
 11 21  1  0  0  0  0
M  END
> <HYBRID receptor title>
5S18(A) > WOY(A-201)

> <HYBRID receptor filename>
data/docking/5s18.oedu

> <HYBRID Chemgauss4 score>
-5.641359

> <HYBRID receptor title>
5S18(A) > WOY(A-201)

> <HYBRID receptor filename>
data/docking/5s18.oedu

> <Dock Type>
Hybrid

$$$$
MOL0206
  -OEChem-07032400353D

 28 30  0     0  0  0  0  0  0999 V2000
   -0.9372   13.5157   -3.1220 C   0  0  0  0  0  0  0  0  0  0  0  0
   -3.1840   13.0016   -3.8465 C   0  0  0  0  0  0  0  0  0  0  0  0
   -0.4261   12.8453   -4.2333 C   0  0  0  0  0  0  0  0  0  0  0  0
   -2.6730   12.3312   -4.9578 C   0  0  0  0  0  0  0  0  0  0  0  0
   -2.8432   15.4594    1.5856 C   0  0  0  0  0  0  0  0  0  0  0  0
   -0.8556   14.3948    1.2613 C   0  0  0  0  0  0  0  0  0  0  0  0
   -3.1939   15.1771    0.2890 C   0  0  0  0  0  0  0  0  0  0  0  0
   -2.3163   13.5939   -2.9288 C   0  0  0  0  0  0  0  0  0  0  0  0
   -1.2938   12.2529   -5.1510 C   0  0  0  0  0  0  0  0  0  0  0  0
   -2.3014   14.4647   -0.4967 C   0  0  0  0  0  0  0  0  0  0  0  0
   -4.4444   15.4859   -0.4427 C   0  0  0  0  0  0  0  0  0  0  0  0
   -4.0737   15.0594   -1.8727 C   0  0  0  0  0  0  0  0  0  0  0  0
   -1.6607   15.0766    2.1046 N   0  0  0  0  0  0  0  0  0  0  0  0
   -1.1077   14.0613   -0.0241 N   0  0  0  0  0  0  0  0  0  0  0  0
   -2.8298   14.2666   -1.8137 N   0  0  0  0  0  0  0  0  0  0  0  0
   -0.7730   11.5709   -6.2823 N   0  3  0  0  0  0  0  0  0  0  0  0
    0.4706   11.5127   -6.4377 O   0  5  0  0  0  0  0  0  0  0  0  0
   -1.5709   11.0450   -7.0956 O   0  0  0  0  0  0  0  0  0  0  0  0
   -0.2520   13.9736   -2.4131 H   0  0  0  0  0  0  0  0  0  0  0  0
   -4.2605   13.0566   -3.7052 H   0  0  0  0  0  0  0  0  0  0  0  0
    0.6509   12.7918   -4.3723 H   0  0  0  0  0  0  0  0  0  0  0  0
   -3.3605   11.8742   -5.6653 H   0  0  0  0  0  0  0  0  0  0  0  0
   -3.5005   16.0015    2.2549 H   0  0  0  0  0  0  0  0  0  0  0  0
    0.1010   14.0788    1.6604 H   0  0  0  0  0  0  0  0  0  0  0  0
   -5.2727   14.8842   -0.0553 H   0  0  0  0  0  0  0  0  0  0  0  0
   -4.6955   16.5493   -0.3965 H   0  0  0  0  0  0  0  0  0  0  0  0
   -4.8873   14.4857   -2.3323 H   0  0  0  0  0  0  0  0  0  0  0  0
   -3.9076   15.9516   -2.4911 H   0  0  0  0  0  0  0  0  0  0  0  0
  1  3  2  0  0  0  0
  1  8  1  0  0  0  0
  2  4  1  0  0  0  0
  2  8  2  0  0  0  0
  3  9  1  0  0  0  0
  4  9  2  0  0  0  0
  5  7  1  0  0  0  0
  5 13  2  0  0  0  0
  6 13  1  0  0  0  0
  6 14  2  0  0  0  0
  7 10  2  0  0  0  0
  7 11  1  0  0  0  0
  8 15  1  0  0  0  0
  9 16  1  0  0  0  0
 10 14  1  0  0  0  0
 10 15  1  0  0  0  0
 11 12  1  0  0  0  0
 12 15  1  0  0  0  0
 16 17  1  0  0  0  0
 16 18  2  0  0  0  0
  1 19  1  0  0  0  0
  2 20  1  0  0  0  0
  3 21  1  0  0  0  0
  4 22  1  0  0  0  0
  5 23  1  0  0  0  0
  6 24  1  0  0  0  0
 11 25  1  0  0  0  0
 11 26  1  0  0  0  0
 12 27  1  0  0  0  0
 12 28  1  0  0  0  0
M  CHG  2  16   1  17  -1
M  END
> <HYBRID receptor title>
5S18(A) > WOY(A-201)

> <HYBRID receptor filename>
data/docking/5s18.oedu

> <HYBRID Chemgauss4 score>
-5.637972

> <HYBRID receptor title>
5S18(A) > WOY(A-201)

> <HYBRID receptor filename>
data/docking/5s18.oedu

> <Dock Type>
Hybrid

$$$$
MOL0030
  -OEChem-07032400353D

 16 17  0     0  0  0  0  0  0999 V2000
   -1.1353   14.6597   -0.9592 C   0  0  0  0  0  0  0  0  0  0  0  0
   -2.3158   14.8649   -0.2952 C   0  0  0  0  0  0  0  0  0  0  0  0
   -2.2810   14.9191    1.0880 C   0  0  0  0  0  0  0  0  0  0  0  0
   -0.0456   14.5727    1.0477 C   0  0  0  0  0  0  0  0  0  0  0  0
   -3.6966   15.0801   -0.8042 C   0  0  0  0  0  0  0  0  0  0  0  0
   -4.5134   15.0906    0.5066 C   0  0  0  0  0  0  0  0  0  0  0  0
    0.0328   14.5048   -0.3029 N   0  0  0  0  0  0  0  0  0  0  0  0
   -1.1498   14.7762    1.7979 N   0  0  0  0  0  0  0  0  0  0  0  0
   -3.5629   15.1438    1.6044 N   0  0  0  0  0  0  0  0  0  0  0  0
    1.5940   14.3581    1.9981 Br  0  0  0  0  0  0  0  0  0  0  0  0
   -1.0806   14.6140   -2.0400 H   0  0  0  0  0  0  0  0  0  0  0  0
   -3.7689   16.0433   -1.3193 H   0  0  0  0  0  0  0  0  0  0  0  0
   -4.0167   14.2695   -1.4655 H   0  0  0  0  0  0  0  0  0  0  0  0
   -5.1986   15.9440    0.5378 H   0  0  0  0  0  0  0  0  0  0  0  0
   -5.1129   14.1761    0.5845 H   0  0  0  0  0  0  0  0  0  0  0  0
   -3.7887   15.1754    2.5862 H   0  0  0  0  0  0  0  0  0  0  0  0
  1  2  1  0  0  0  0
  1  7  2  0  0  0  0
  2  3  2  0  0  0  0
  2  5  1  0  0  0  0
  3  8  1  0  0  0  0
  3  9  1  0  0  0  0
  4  7  1  0  0  0  0
  4  8  2  0  0  0  0
  4 10  1  0  0  0  0
  5  6  1  0  0  0  0
  6  9  1  0  0  0  0
  1 11  1  0  0  0  0
  5 12  1  0  0  0  0
  5 13  1  0  0  0  0
  6 14  1  0  0  0  0
  6 15  1  0  0  0  0
  9 16  1  0  0  0  0
M  END
> <HYBRID receptor title>
5S18(A) > WOY(A-201)

> <HYBRID receptor filename>
data/docking/5s18.oedu

> <HYBRID Chemgauss4 score>
-5.631564

> <HYBRID receptor title>
5S18(A) > WOY(A-201)

> <HYBRID receptor filename>
data/docking/5s18.oedu

> <Dock Type>
Hybrid

$$$$
MOL0194
  -OEChem-07032400353D

 19 20  0     1  0  0  0  0  0999 V2000
   -2.9328   15.0213    1.4672 C   0  0  0  0  0  0  0  0  0  0  0  0
   -0.7188   14.8439    0.9010 C   0  0  0  0  0  0  0  0  0  0  0  0
   -3.2665   14.9433    0.1430 C   0  0  0  0  0  0  0  0  0  0  0  0
   -2.2320   14.8131   -0.7572 C   0  0  0  0  0  0  0  0  0  0  0  0
   -4.5671   15.0033   -0.5629 C   0  0  0  0  0  0  0  0  0  0  0  0
   -2.7930   14.7955   -2.1523 C   0  0  1  0  0  0  0  0  0  0  0  0
   -2.2377   13.6599   -3.0021 C   0  0  0  0  0  0  0  0  0  0  0  0
   -1.6481   14.9685    1.8814 N   0  0  0  0  0  0  0  0  0  0  0  0
   -0.9337   14.7669   -0.4293 N   0  0  0  0  0  0  0  0  0  0  0  0
   -4.2707   14.6718   -1.9820 N   0  0  0  0  0  0  0  0  0  0  0  0
   -3.6775   15.1315    2.2460 H   0  0  0  0  0  0  0  0  0  0  0  0
    0.3147   14.8036    1.2241 H   0  0  0  0  0  0  0  0  0  0  0  0
   -5.2834   14.2857   -0.1511 H   0  0  0  0  0  0  0  0  0  0  0  0
   -4.9881   16.0121   -0.5062 H   0  0  0  0  0  0  0  0  0  0  0  0
   -2.5802   15.7590   -2.6299 H   0  0  0  0  0  0  0  0  0  0  0  0
   -2.4488   12.7013   -2.5281 H   0  0  0  0  0  0  0  0  0  0  0  0
   -1.1589   13.7696   -3.1128 H   0  0  0  0  0  0  0  0  0  0  0  0
   -2.6975   13.6739   -3.9911 H   0  0  0  0  0  0  0  0  0  0  0  0
   -4.5378   13.6987   -2.1384 H   0  0  0  0  0  0  0  0  0  0  0  0
  1  3  1  0  0  0  0
  1  8  2  0  0  0  0
  2  8  1  0  0  0  0
  2  9  2  0  0  0  0
  3  4  2  0  0  0  0
  3  5  1  0  0  0  0
  4  6  1  0  0  0  0
  4  9  1  0  0  0  0
  5 10  1  0  0  0  0
  6  7  1  0  0  0  0
  6 10  1  0  0  0  0
  1 11  1  0  0  0  0
  2 12  1  0  0  0  0
  5 13  1  0  0  0  0
  5 14  1  0  0  0  0
  6 15  1  0  0  0  0
  7 16  1  0  0  0  0
  7 17  1  0  0  0  0
  7 18  1  0  0  0  0
 10 19  1  0  0  0  0
M  END
> <HYBRID receptor title>
5S18(A) > WOY(A-201)

> <HYBRID receptor filename>
data/docking/5s18.oedu

> <HYBRID Chemgauss4 score>
-5.608059

> <HYBRID receptor title>
5S18(A) > WOY(A-201)

> <HYBRID receptor filename>
data/docking/5s18.oedu

> <Dock Type>
Hybrid

$$$$
MOL0156
  -OEChem-07032400353D

 22 23  0     1  0  0  0  0  0999 V2000
   -1.2055   14.6957   -0.9177 C   0  0  0  0  0  0  0  0  0  0  0  0
   -0.1039   14.8620    1.0548 C   0  0  0  0  0  0  0  0  0  0  0  0
   -2.4313   14.6420   -0.2728 C   0  0  0  0  0  0  0  0  0  0  0  0
   -2.3955   14.7462    1.1198 C   0  0  0  0  0  0  0  0  0  0  0  0
   -4.8320   14.9919    1.1195 C   0  0  0  0  0  0  0  0  0  0  0  0
   -4.8411   14.2541   -0.2253 C   0  0  1  0  0  0  0  0  0  0  0  0
   -6.0511   14.6586   -1.0592 C   0  0  0  0  0  0  0  0  0  0  0  0
   -0.0204   14.8017   -0.2841 N   0  0  0  0  0  0  0  0  0  0  0  0
   -1.2264   14.8393    1.7980 N   0  0  0  0  0  0  0  0  0  0  0  0
   -3.6225   14.5413   -0.9687 N   0  0  0  0  0  0  0  0  0  0  0  0
   -3.5928   14.7463    1.8307 N   0  0  0  0  0  0  0  0  0  0  0  0
   -6.2728   13.6659   -2.0451 O   0  0  0  0  0  0  0  0  0  0  0  0
   -1.1370   14.6458   -2.0005 H   0  0  0  0  0  0  0  0  0  0  0  0
    0.8312   14.9397    1.5957 H   0  0  0  0  0  0  0  0  0  0  0  0
   -4.9514   16.0724    0.9692 H   0  0  0  0  0  0  0  0  0  0  0  0
   -5.6731   14.6590    1.7379 H   0  0  0  0  0  0  0  0  0  0  0  0
   -4.8908   13.1731   -0.0404 H   0  0  0  0  0  0  0  0  0  0  0  0
   -5.8649   15.6153   -1.5476 H   0  0  0  0  0  0  0  0  0  0  0  0
   -6.9339   14.7368   -0.4233 H   0  0  0  0  0  0  0  0  0  0  0  0
   -3.5931   14.3637   -1.9659 H   0  0  0  0  0  0  0  0  0  0  0  0
   -3.5555   14.8445    2.8376 H   0  0  0  0  0  0  0  0  0  0  0  0
   -7.0470   13.9460   -2.5620 H   0  0  0  0  0  0  0  0  0  0  0  0
  1  3  1  0  0  0  0
  1  8  2  0  0  0  0
  2  8  1  0  0  0  0
  2  9  2  0  0  0  0
  3  4  2  0  0  0  0
  3 10  1  0  0  0  0
  4  9  1  0  0  0  0
  4 11  1  0  0  0  0
  5  6  1  0  0  0  0
  5 11  1  0  0  0  0
  6  7  1  0  0  0  0
  6 10  1  0  0  0  0
  7 12  1  0  0  0  0
  1 13  1  0  0  0  0
  2 14  1  0  0  0  0
  5 15  1  0  0  0  0
  5 16  1  0  0  0  0
  6 17  1  0  0  0  0
  7 18  1  0  0  0  0
  7 19  1  0  0  0  0
 10 20  1  0  0  0  0
 11 21  1  0  0  0  0
 12 22  1  0  0  0  0
M  END
> <HYBRID receptor title>
5S18(A) > WOY(A-201)

> <HYBRID receptor filename>
data/docking/5s18.oedu

> <HYBRID Chemgauss4 score>
-5.598176

> <HYBRID receptor title>
5S18(A) > WOY(A-201)

> <HYBRID receptor filename>
data/docking/5s18.oedu

> <Dock Type>
Hybrid

$$$$
MOL0054
  -OEChem-07032400353D

 16 17  0     0  0  0  0  0  0999 V2000
   -2.2037   14.0081   -2.8391 C   0  0  0  0  0  0  0  0  0  0  0  0
   -1.0133   14.1960   -2.1509 C   0  0  0  0  0  0  0  0  0  0  0  0
    0.1438   14.6675   -0.0434 C   0  0  0  0  0  0  0  0  0  0  0  0
   -3.3805   14.1034   -2.1224 C   0  0  0  0  0  0  0  0  0  0  0  0
    0.0329   14.9346    1.3093 C   0  0  0  0  0  0  0  0  0  0  0  0
   -2.2583   14.8217    1.2207 C   0  0  0  0  0  0  0  0  0  0  0  0
   -1.0325   14.4713   -0.7768 C   0  0  0  0  0  0  0  0  0  0  0  0
   -2.2820   14.5480   -0.1370 C   0  0  0  0  0  0  0  0  0  0  0  0
   -1.1433   15.0171    1.9615 N   0  0  0  0  0  0  0  0  0  0  0  0
   -3.4429   14.3671   -0.7973 N   0  0  0  0  0  0  0  0  0  0  0  0
   -2.2088   13.7941   -3.9015 H   0  0  0  0  0  0  0  0  0  0  0  0
   -0.0719   14.1261   -2.6907 H   0  0  0  0  0  0  0  0  0  0  0  0
    1.1219   14.6147   -0.5110 H   0  0  0  0  0  0  0  0  0  0  0  0
   -4.3404   13.9651   -2.6092 H   0  0  0  0  0  0  0  0  0  0  0  0
    0.9152   15.0932    1.9201 H   0  0  0  0  0  0  0  0  0  0  0  0
   -3.1848   14.8967    1.7845 H   0  0  0  0  0  0  0  0  0  0  0  0
  1  2  2  0  0  0  0
  1  4  1  0  0  0  0
  2  7  1  0  0  0  0
  3  5  2  0  0  0  0
  3  7  1  0  0  0  0
  4 10  2  0  0  0  0
  5  9  1  0  0  0  0
  6  8  1  0  0  0  0
  6  9  2  0  0  0  0
  7  8  2  0  0  0  0
  8 10  1  0  0  0  0
  1 11  1  0  0  0  0
  2 12  1  0  0  0  0
  3 13  1  0  0  0  0
  4 14  1  0  0  0  0
  5 15  1  0  0  0  0
  6 16  1  0  0  0  0
M  END
> <HYBRID receptor title>
5S18(A) > WOY(A-201)

> <HYBRID receptor filename>
data/docking/5s18.oedu

> <HYBRID Chemgauss4 score>
-5.590305

> <HYBRID receptor title>
5S18(A) > WOY(A-201)

> <HYBRID receptor filename>
data/docking/5s18.oedu

> <Dock Type>
Hybrid

$$$$
MOL0029
  -OEChem-07032400353D

 21 22  0     1  0  0  0  0  0999 V2000
   -0.7403   14.8407   -0.8238 C   0  0  0  0  0  0  0  0  0  0  0  0
    0.0326   14.9380    1.3030 C   0  0  0  0  0  0  0  0  0  0  0  0
   -2.0505   14.7306   -0.3839 C   0  0  0  0  0  0  0  0  0  0  0  0
   -2.2364   14.7705    1.0004 C   0  0  0  0  0  0  0  0  0  0  0  0
   -4.6496   14.9641    0.6255 C   0  0  0  0  0  0  0  0  0  0  0  0
   -4.4267   14.2900   -0.7337 C   0  0  1  0  0  0  0  0  0  0  0  0
   -5.5010   14.7075   -1.7308 C   0  0  0  0  0  0  0  0  0  0  0  0
    0.3254   14.9422   -0.0071 N   0  0  0  0  0  0  0  0  0  0  0  0
   -1.1914   14.8567    1.8577 N   0  0  0  0  0  0  0  0  0  0  0  0
   -3.1144   14.6371   -1.2627 N   0  0  0  0  0  0  0  0  0  0  0  0
   -3.5295   14.7119    1.5122 N   0  0  0  0  0  0  0  0  0  0  0  0
   -0.5014   14.8430   -1.8832 H   0  0  0  0  0  0  0  0  0  0  0  0
    0.8690   15.0101    1.9873 H   0  0  0  0  0  0  0  0  0  0  0  0
   -4.7746   16.0477    0.5050 H   0  0  0  0  0  0  0  0  0  0  0  0
   -5.5670   14.5844    1.0891 H   0  0  0  0  0  0  0  0  0  0  0  0
   -4.4741   13.2006   -0.6055 H   0  0  0  0  0  0  0  0  0  0  0  0
   -5.4745   15.7869   -1.8757 H   0  0  0  0  0  0  0  0  0  0  0  0
   -6.4846   14.4236   -1.3581 H   0  0  0  0  0  0  0  0  0  0  0  0
   -5.3301   14.2168   -2.6894 H   0  0  0  0  0  0  0  0  0  0  0  0
   -2.9244   14.5071   -2.2495 H   0  0  0  0  0  0  0  0  0  0  0  0
   -3.6536   14.7634    2.5156 H   0  0  0  0  0  0  0  0  0  0  0  0
  1  3  1  0  0  0  0
  1  8  2  0  0  0  0
  2  8  1  0  0  0  0
  2  9  2  0  0  0  0
  3  4  2  0  0  0  0
  3 10  1  0  0  0  0
  4  9  1  0  0  0  0
  4 11  1  0  0  0  0
  5  6  1  0  0  0  0
  5 11  1  0  0  0  0
  6  7  1  0  0  0  0
  6 10  1  0  0  0  0
  1 12  1  0  0  0  0
  2 13  1  0  0  0  0
  5 14  1  0  0  0  0
  5 15  1  0  0  0  0
  6 16  1  0  0  0  0
  7 17  1  0  0  0  0
  7 18  1  0  0  0  0
  7 19  1  0  0  0  0
 10 20  1  0  0  0  0
 11 21  1  0  0  0  0
M  END
> <HYBRID receptor title>
5S18(A) > WOY(A-201)

> <HYBRID receptor filename>
data/docking/5s18.oedu

> <HYBRID Chemgauss4 score>
-5.588255

> <HYBRID receptor title>
5S18(A) > WOY(A-201)

> <HYBRID receptor filename>
data/docking/5s18.oedu

> <Dock Type>
Hybrid

$$$$
MOL0095
  -OEChem-07032400353D

 19 20  0     1  0  0  0  0  0999 V2000
   -2.8733   14.7547    1.2919 C   0  0  0  0  0  0  0  0  0  0  0  0
   -0.6317   14.9653    0.8652 C   0  0  0  0  0  0  0  0  0  0  0  0
   -3.1063   14.5940   -0.0477 C   0  0  0  0  0  0  0  0  0  0  0  0
   -2.0041   14.6393   -0.8861 C   0  0  0  0  0  0  0  0  0  0  0  0
   -4.3764   14.4248   -0.8036 C   0  0  0  0  0  0  0  0  0  0  0  0
   -3.8381   13.8994   -2.1462 C   0  0  0  0  0  0  0  0  0  0  0  0
   -2.4372   14.5240   -2.3255 C   0  0  2  0  0  0  0  0  0  0  0  0
   -1.6287   14.9369    1.7839 N   0  0  0  0  0  0  0  0  0  0  0  0
   -0.7431   14.8337   -0.4734 N   0  0  0  0  0  0  0  0  0  0  0  0
   -1.5765   13.6853   -3.1416 N   0  0  0  0  0  0  0  0  0  0  0  0
   -3.6734   14.7472    2.0221 H   0  0  0  0  0  0  0  0  0  0  0  0
    0.3695   15.1145    1.2521 H   0  0  0  0  0  0  0  0  0  0  0  0
   -5.0537   13.7051   -0.3359 H   0  0  0  0  0  0  0  0  0  0  0  0
   -4.8781   15.3896   -0.9283 H   0  0  0  0  0  0  0  0  0  0  0  0
   -3.7642   12.8031   -2.0882 H   0  0  0  0  0  0  0  0  0  0  0  0
   -4.5080   14.1299   -2.9815 H   0  0  0  0  0  0  0  0  0  0  0  0
   -2.5207   15.5288   -2.7560 H   0  0  0  0  0  0  0  0  0  0  0  0
   -0.6576   14.1185   -3.2189 H   0  0  0  0  0  0  0  0  0  0  0  0
   -1.9490   13.6389   -4.0890 H   0  0  0  0  0  0  0  0  0  0  0  0
  1  3  1  0  0  0  0
  1  8  2  0  0  0  0
  2  8  1  0  0  0  0
  2  9  2  0  0  0  0
  3  4  2  0  0  0  0
  3  5  1  0  0  0  0
  4  7  1  0  0  0  0
  4  9  1  0  0  0  0
  5  6  1  0  0  0  0
  6  7  1  0  0  0  0
  7 10  1  0  0  0  0
  1 11  1  0  0  0  0
  2 12  1  0  0  0  0
  5 13  1  0  0  0  0
  5 14  1  0  0  0  0
  6 15  1  0  0  0  0
  6 16  1  0  0  0  0
  7 17  1  0  0  0  0
 10 18  1  0  0  0  0
 10 19  1  0  0  0  0
M  END
> <HYBRID receptor title>
5S18(A) > WOY(A-201)

> <HYBRID receptor filename>
data/docking/5s18.oedu

> <HYBRID Chemgauss4 score>
-5.571404

> <HYBRID receptor title>
5S18(A) > WOY(A-201)

> <HYBRID receptor filename>
data/docking/5s18.oedu

> <Dock Type>
Hybrid

$$$$
MOL0149
  -OEChem-07032400353D

 17 18  0     0  0  0  0  0  0999 V2000
   -1.0749   14.5868   -0.7903 C   0  0  0  0  0  0  0  0  0  0  0  0
    0.0864   14.5612   -0.0262 C   0  0  0  0  0  0  0  0  0  0  0  0
   -2.2601   14.8977   -0.1521 C   0  0  0  0  0  0  0  0  0  0  0  0
   -2.2696   15.1650    1.2138 C   0  0  0  0  0  0  0  0  0  0  0  0
   -0.0087   14.8433    1.3344 C   0  0  0  0  0  0  0  0  0  0  0  0
   -3.6422   14.9722   -0.7089 C   0  0  0  0  0  0  0  0  0  0  0  0
   -4.4362   15.5304    0.4910 C   0  0  0  0  0  0  0  0  0  0  0  0
   -1.1629   15.1446    1.9792 N   0  0  0  0  0  0  0  0  0  0  0  0
   -3.5706   15.4441    1.6534 N   0  0  0  0  0  0  0  0  0  0  0  0
    1.5808   14.8054    2.3764 Br  0  0  0  0  0  0  0  0  0  0  0  0
   -1.0468   14.3673   -1.8517 H   0  0  0  0  0  0  0  0  0  0  0  0
    1.0354   14.3225   -0.4957 H   0  0  0  0  0  0  0  0  0  0  0  0
   -3.6977   15.6445   -1.5698 H   0  0  0  0  0  0  0  0  0  0  0  0
   -3.9959   13.9732   -0.9831 H   0  0  0  0  0  0  0  0  0  0  0  0
   -4.7018   16.5789    0.3116 H   0  0  0  0  0  0  0  0  0  0  0  0
   -5.3650   14.9719    0.6462 H   0  0  0  0  0  0  0  0  0  0  0  0
   -3.8096   15.7164    2.5941 H   0  0  0  0  0  0  0  0  0  0  0  0
  1  2  2  0  0  0  0
  1  3  1  0  0  0  0
  2  5  1  0  0  0  0
  3  4  2  0  0  0  0
  3  6  1  0  0  0  0
  4  8  1  0  0  0  0
  4  9  1  0  0  0  0
  5  8  2  0  0  0  0
  5 10  1  0  0  0  0
  6  7  1  0  0  0  0
  7  9  1  0  0  0  0
  1 11  1  0  0  0  0
  2 12  1  0  0  0  0
  6 13  1  0  0  0  0
  6 14  1  0  0  0  0
  7 15  1  0  0  0  0
  7 16  1  0  0  0  0
  9 17  1  0  0  0  0
M  END
> <HYBRID receptor title>
5S18(A) > WOY(A-201)

> <HYBRID receptor filename>
data/docking/5s18.oedu

> <HYBRID Chemgauss4 score>
-5.562245

> <HYBRID receptor title>
5S18(A) > WOY(A-201)

> <HYBRID receptor filename>
data/docking/5s18.oedu

> <Dock Type>
Hybrid

$$$$
MOL0086
  -OEChem-07032400353D

 17 18  0     0  0  0  0  0  0999 V2000
   -4.1473   14.9093   -0.4688 C   0  0  0  0  0  0  0  0  0  0  0  0
   -2.5043   14.9627    1.3584 C   0  0  0  0  0  0  0  0  0  0  0  0
   -2.0761   14.9530   -2.2334 C   0  0  0  0  0  0  0  0  0  0  0  0
   -0.2915   15.0175    0.8757 C   0  0  0  0  0  0  0  0  0  0  0  0
   -2.8300   14.9462    0.0048 C   0  0  0  0  0  0  0  0  0  0  0  0
   -1.7511   14.9694   -0.8868 C   0  0  0  0  0  0  0  0  0  0  0  0
   -4.3404   14.8960   -1.8381 C   0  0  0  0  0  0  0  0  0  0  0  0
   -1.2415   14.9980    1.8260 N   0  0  0  0  0  0  0  0  0  0  0  0
   -3.3338   14.9173   -2.7354 N   0  0  0  0  0  0  0  0  0  0  0  0
   -0.4753   15.0052   -0.4598 N   0  0  0  0  0  0  0  0  0  0  0  0
   -5.6755   14.8578   -2.3088 N   0  0  0  0  0  0  0  0  0  0  0  0
   -4.9878   14.8917    0.2191 H   0  0  0  0  0  0  0  0  0  0  0  0
   -3.2716   14.9471    2.1269 H   0  0  0  0  0  0  0  0  0  0  0  0
   -1.2956   14.9687   -2.9896 H   0  0  0  0  0  0  0  0  0  0  0  0
    0.7355   15.0463    1.2191 H   0  0  0  0  0  0  0  0  0  0  0  0
   -6.4176   14.7886   -1.6467 H   0  0  0  0  0  0  0  0  0  0  0  0
   -5.8385   14.7940   -3.2903 H   0  0  0  0  0  0  0  0  0  0  0  0
  1  5  2  0  0  0  0
  1  7  1  0  0  0  0
  2  5  1  0  0  0  0
  2  8  2  0  0  0  0
  3  6  2  0  0  0  0
  3  9  1  0  0  0  0
  4  8  1  0  0  0  0
  4 10  2  0  0  0  0
  5  6  1  0  0  0  0
  6 10  1  0  0  0  0
  7  9  2  0  0  0  0
  7 11  1  0  0  0  0
  1 12  1  0  0  0  0
  2 13  1  0  0  0  0
  3 14  1  0  0  0  0
  4 15  1  0  0  0  0
 11 16  1  0  0  0  0
 11 17  1  0  0  0  0
M  END
> <HYBRID receptor title>
5S18(A) > WOY(A-201)

> <HYBRID receptor filename>
data/docking/5s18.oedu

> <HYBRID Chemgauss4 score>
-5.538521

> <HYBRID receptor title>
5S18(A) > WOY(A-201)

> <HYBRID receptor filename>
data/docking/5s18.oedu

> <Dock Type>
Hybrid

$$$$
MOL0111
  -OEChem-07032400353D

 20 21  0     0  0  0  0  0  0999 V2000
   -2.1711   14.6379   -1.1369 C   0  0  0  0  0  0  0  0  0  0  0  0
   -0.8840   14.5613   -0.6168 C   0  0  0  0  0  0  0  0  0  0  0  0
   -3.2008   14.9426   -0.2677 C   0  0  0  0  0  0  0  0  0  0  0  0
   -0.7045   14.7892    0.7454 C   0  0  0  0  0  0  0  0  0  0  0  0
   -2.9367   15.1541    1.0824 C   0  0  0  0  0  0  0  0  0  0  0  0
   -4.6627   15.0634   -0.5395 C   0  0  0  0  0  0  0  0  0  0  0  0
   -5.1930   15.5857    0.8125 C   0  0  0  0  0  0  0  0  0  0  0  0
    0.6721   14.7108    1.3180 C   0  0  0  0  0  0  0  0  0  0  0  0
   -1.7027   15.0836    1.6147 N   0  0  0  0  0  0  0  0  0  0  0  0
   -4.1196   15.4372    1.7786 N   0  0  0  0  0  0  0  0  0  0  0  0
   -2.3560   14.4602   -2.1903 H   0  0  0  0  0  0  0  0  0  0  0  0
   -0.0458   14.3260   -1.2646 H   0  0  0  0  0  0  0  0  0  0  0  0
   -4.8695   15.7707   -1.3479 H   0  0  0  0  0  0  0  0  0  0  0  0
   -5.0878   14.0825   -0.7745 H   0  0  0  0  0  0  0  0  0  0  0  0
   -5.4633   16.6448    0.7275 H   0  0  0  0  0  0  0  0  0  0  0  0
   -6.0867   15.0366    1.1262 H   0  0  0  0  0  0  0  0  0  0  0  0
    1.1721   15.6871    1.2859 H   0  0  0  0  0  0  0  0  0  0  0  0
    1.2992   14.0124    0.7492 H   0  0  0  0  0  0  0  0  0  0  0  0
    0.6318   14.3737    2.3605 H   0  0  0  0  0  0  0  0  0  0  0  0
   -4.1631   15.6727    2.7578 H   0  0  0  0  0  0  0  0  0  0  0  0
  1  2  2  0  0  0  0
  1  3  1  0  0  0  0
  2  4  1  0  0  0  0
  3  5  2  0  0  0  0
  3  6  1  0  0  0  0
  4  8  1  0  0  0  0
  4  9  2  0  0  0  0
  5  9  1  0  0  0  0
  5 10  1  0  0  0  0
  6  7  1  0  0  0  0
  7 10  1  0  0  0  0
  1 11  1  0  0  0  0
  2 12  1  0  0  0  0
  6 13  1  0  0  0  0
  6 14  1  0  0  0  0
  7 15  1  0  0  0  0
  7 16  1  0  0  0  0
  8 17  1  0  0  0  0
  8 18  1  0  0  0  0
  8 19  1  0  0  0  0
 10 20  1  0  0  0  0
M  END
> <HYBRID receptor title>
5S18(A) > WOY(A-201)

> <HYBRID receptor filename>
data/docking/5s18.oedu

> <HYBRID Chemgauss4 score>
-5.525857

> <HYBRID receptor title>
5S18(A) > WOY(A-201)

> <HYBRID receptor filename>
data/docking/5s18.oedu

> <Dock Type>
Hybrid

$$$$
MOL0166
  -OEChem-07032400353D

 19 20  0     0  0  0  0  0  0999 V2000
   -0.0505   14.8813    1.0035 C   0  0  0  0  0  0  0  0  0  0  0  0
   -2.2900   14.6269   -0.4604 C   0  0  0  0  0  0  0  0  0  0  0  0
   -2.3300   14.8836    0.9062 C   0  0  0  0  0  0  0  0  0  0  0  0
   -1.0260   14.5318   -1.0176 C   0  0  0  0  0  0  0  0  0  0  0  0
   -3.5391   14.5348   -1.2853 C   0  0  0  0  0  0  0  0  0  0  0  0
   -3.6582   14.9765    1.6098 C   0  0  0  0  0  0  0  0  0  0  0  0
   -4.8140   15.2285    0.6380 C   0  0  0  0  0  0  0  0  0  0  0  0
   -1.2173   15.0048    1.6642 N   0  0  0  0  0  0  0  0  0  0  0  0
    0.1165   14.6502   -0.3118 N   0  0  0  0  0  0  0  0  0  0  0  0
   -4.7560   14.2996   -0.4951 N   0  0  0  0  0  0  0  0  0  0  0  0
   -0.7538   14.2256   -2.6898 Cl  0  0  0  0  0  0  0  0  0  0  0  0
    0.8516   14.9784    1.5952 H   0  0  0  0  0  0  0  0  0  0  0  0
   -3.6973   15.4651   -1.8453 H   0  0  0  0  0  0  0  0  0  0  0  0
   -3.4271   13.7264   -2.0208 H   0  0  0  0  0  0  0  0  0  0  0  0
   -3.8455   14.0513    2.1655 H   0  0  0  0  0  0  0  0  0  0  0  0
   -3.5999   15.7959    2.3359 H   0  0  0  0  0  0  0  0  0  0  0  0
   -5.7823   15.1321    1.1505 H   0  0  0  0  0  0  0  0  0  0  0  0
   -4.7618   16.2596    0.2651 H   0  0  0  0  0  0  0  0  0  0  0  0
   -5.5729   14.4432   -1.0864 H   0  0  0  0  0  0  0  0  0  0  0  0
  1  8  1  0  0  0  0
  1  9  2  0  0  0  0
  2  3  1  0  0  0  0
  2  4  2  0  0  0  0
  2  5  1  0  0  0  0
  3  6  1  0  0  0  0
  3  8  2  0  0  0  0
  4  9  1  0  0  0  0
  4 11  1  0  0  0  0
  5 10  1  0  0  0  0
  6  7  1  0  0  0  0
  7 10  1  0  0  0  0
  1 12  1  0  0  0  0
  5 13  1  0  0  0  0
  5 14  1  0  0  0  0
  6 15  1  0  0  0  0
  6 16  1  0  0  0  0
  7 17  1  0  0  0  0
  7 18  1  0  0  0  0
 10 19  1  0  0  0  0
M  END
> <HYBRID receptor title>
5S18(A) > WOY(A-201)

> <HYBRID receptor filename>
data/docking/5s18.oedu

> <HYBRID Chemgauss4 score>
-5.523664

> <HYBRID receptor title>
5S18(A) > WOY(A-201)

> <HYBRID receptor filename>
data/docking/5s18.oedu

> <Dock Type>
Hybrid

$$$$
MOL0073
  -OEChem-07032400353D

 20 21  0     1  0  0  0  0  0999 V2000
   -1.1500   14.6073   -0.9257 C   0  0  0  0  0  0  0  0  0  0  0  0
    0.1131   14.8322    0.9637 C   0  0  0  0  0  0  0  0  0  0  0  0
   -2.2823   14.5988   -0.1533 C   0  0  0  0  0  0  0  0  0  0  0  0
   -2.1318   14.7121    1.2176 C   0  0  0  0  0  0  0  0  0  0  0  0
   -3.7154   14.4650   -0.5298 C   0  0  0  0  0  0  0  0  0  0  0  0
   -4.4245   14.6108    0.8444 C   0  0  2  0  0  0  0  0  0  0  0  0
   -5.2901   15.8639    0.9132 C   0  0  0  0  0  0  0  0  0  0  0  0
    0.0794   14.7264   -0.3852 N   0  0  0  0  0  0  0  0  0  0  0  0
   -0.9348   14.8318    1.8158 N   0  0  0  0  0  0  0  0  0  0  0  0
   -3.3769   14.6846    1.8557 N   0  0  0  0  0  0  0  0  0  0  0  0
   -5.9069   15.9177    2.1873 O   0  0  0  0  0  0  0  0  0  0  0  0
   -1.1866   14.5175   -2.0046 H   0  0  0  0  0  0  0  0  0  0  0  0
    1.0953   14.9283    1.4112 H   0  0  0  0  0  0  0  0  0  0  0  0
   -4.0124   15.2407   -1.2423 H   0  0  0  0  0  0  0  0  0  0  0  0
   -3.9003   13.4734   -0.9560 H   0  0  0  0  0  0  0  0  0  0  0  0
   -5.0546   13.7329    1.0302 H   0  0  0  0  0  0  0  0  0  0  0  0
   -6.0600   15.8285    0.1422 H   0  0  0  0  0  0  0  0  0  0  0  0
   -4.6729   16.7525    0.7751 H   0  0  0  0  0  0  0  0  0  0  0  0
   -3.5155   14.7712    2.8503 H   0  0  0  0  0  0  0  0  0  0  0  0
   -6.4514   16.7227    2.2062 H   0  0  0  0  0  0  0  0  0  0  0  0
  1  3  1  0  0  0  0
  1  8  2  0  0  0  0
  2  8  1  0  0  0  0
  2  9  2  0  0  0  0
  3  4  2  0  0  0  0
  3  5  1  0  0  0  0
  4  9  1  0  0  0  0
  4 10  1  0  0  0  0
  5  6  1  0  0  0  0
  6  7  1  0  0  0  0
  6 10  1  0  0  0  0
  7 11  1  0  0  0  0
  1 12  1  0  0  0  0
  2 13  1  0  0  0  0
  5 14  1  0  0  0  0
  5 15  1  0  0  0  0
  6 16  1  0  0  0  0
  7 17  1  0  0  0  0
  7 18  1  0  0  0  0
 10 19  1  0  0  0  0
 11 20  1  0  0  0  0
M  END
> <HYBRID receptor title>
5S18(A) > WOY(A-201)

> <HYBRID receptor filename>
data/docking/5s18.oedu

> <HYBRID Chemgauss4 score>
-5.517379

> <HYBRID receptor title>
5S18(A) > WOY(A-201)

> <HYBRID receptor filename>
data/docking/5s18.oedu

> <Dock Type>
Hybrid

$$$$
MOL0116
  -OEChem-07032400353D

 19 20  0     1  0  0  0  0  0999 V2000
   -2.3666   14.9138    1.1608 C   0  0  0  0  0  0  0  0  0  0  0  0
   -0.1183   14.5181    1.0926 C   0  0  0  0  0  0  0  0  0  0  0  0
   -2.3837   14.9833   -0.2080 C   0  0  0  0  0  0  0  0  0  0  0  0
   -1.1872   14.8067   -0.8805 C   0  0  0  0  0  0  0  0  0  0  0  0
   -3.5014   15.2448   -1.1546 C   0  0  0  0  0  0  0  0  0  0  0  0
   -2.7968   15.1041   -2.5317 C   0  0  2  0  0  0  0  0  0  0  0  0
   -3.3323   13.9221   -3.3320 C   0  0  0  0  0  0  0  0  0  0  0  0
   -1.2306   14.6770    1.8472 N   0  0  0  0  0  0  0  0  0  0  0  0
   -0.0228   14.5698   -0.2537 N   0  0  0  0  0  0  0  0  0  0  0  0
   -1.3772   14.9091   -2.2630 N   0  0  0  0  0  0  0  0  0  0  0  0
   -2.6742   13.8163   -4.4973 F   0  0  0  0  0  0  0  0  0  0  0  0
   -4.6394   14.0907   -3.5873 F   0  0  0  0  0  0  0  0  0  0  0  0
   -3.1701   12.7835   -2.6396 F   0  0  0  0  0  0  0  0  0  0  0  0
   -3.2613   15.0469    1.7567 H   0  0  0  0  0  0  0  0  0  0  0  0
    0.8020   14.3274    1.6320 H   0  0  0  0  0  0  0  0  0  0  0  0
   -4.3124   14.5226   -1.0199 H   0  0  0  0  0  0  0  0  0  0  0  0
   -3.8791   16.2633   -1.0169 H   0  0  0  0  0  0  0  0  0  0  0  0
   -2.9387   16.0216   -3.1149 H   0  0  0  0  0  0  0  0  0  0  0  0
   -0.6513   14.7963   -2.9532 H   0  0  0  0  0  0  0  0  0  0  0  0
  1  3  1  0  0  0  0
  1  8  2  0  0  0  0
  2  8  1  0  0  0  0
  2  9  2  0  0  0  0
  3  4  2  0  0  0  0
  3  5  1  0  0  0  0
  4  9  1  0  0  0  0
  4 10  1  0  0  0  0
  5  6  1  0  0  0  0
  6  7  1  0  0  0  0
  6 10  1  0  0  0  0
  7 11  1  0  0  0  0
  7 12  1  0  0  0  0
  7 13  1  0  0  0  0
  1 14  1  0  0  0  0
  2 15  1  0  0  0  0
  5 16  1  0  0  0  0
  5 17  1  0  0  0  0
  6 18  1  0  0  0  0
 10 19  1  0  0  0  0
M  END
> <HYBRID receptor title>
5S18(A) > WOY(A-201)

> <HYBRID receptor filename>
data/docking/5s18.oedu

> <HYBRID Chemgauss4 score>
-5.515366

> <HYBRID receptor title>
5S18(A) > WOY(A-201)

> <HYBRID receptor filename>
data/docking/5s18.oedu

> <Dock Type>
Hybrid

$$$$
MOL0131
  -OEChem-07032400353D

 21 22  0     1  0  0  0  0  0999 V2000
   -2.2947   15.1386    1.3822 C   0  0  0  0  0  0  0  0  0  0  0  0
   -0.0805   14.7271    1.1880 C   0  0  0  0  0  0  0  0  0  0  0  0
   -2.4555   15.1507    0.0039 C   0  0  0  0  0  0  0  0  0  0  0  0
   -1.3087   14.8963   -0.7598 C   0  0  0  0  0  0  0  0  0  0  0  0
   -3.7656   15.5757   -2.0026 C   0  0  0  0  0  0  0  0  0  0  0  0
   -2.7534   14.6970   -2.7299 C   0  0  0  0  0  0  0  0  0  0  0  0
   -0.2610   14.4836   -2.9444 C   0  0  0  0  0  0  0  0  0  0  0  0
   -1.1205   14.9335    2.0077 N   0  0  0  0  0  0  0  0  0  0  0  0
   -0.1071   14.6982   -0.1582 N   0  0  0  0  0  0  0  0  0  0  0  0
   -3.6946   15.3576   -0.5738 N   0  0  0  0  0  0  0  0  0  0  0  0
   -1.4209   14.8606   -2.1560 N   0  0  2  0  0  0  0  0  0  0  0  0
   -3.1376   15.3058    2.0466 H   0  0  0  0  0  0  0  0  0  0  0  0
    0.8828   14.5644    1.6554 H   0  0  0  0  0  0  0  0  0  0  0  0
   -3.5702   16.6331   -2.2195 H   0  0  0  0  0  0  0  0  0  0  0  0
   -4.7780   15.3533   -2.3562 H   0  0  0  0  0  0  0  0  0  0  0  0
   -3.0526   13.6428   -2.6678 H   0  0  0  0  0  0  0  0  0  0  0  0
   -2.7456   14.9688   -3.7920 H   0  0  0  0  0  0  0  0  0  0  0  0
   -0.4994   14.5009   -4.0117 H   0  0  0  0  0  0  0  0  0  0  0  0
    0.5642   15.1767   -2.7578 H   0  0  0  0  0  0  0  0  0  0  0  0
    0.0678   13.4763   -2.6744 H   0  0  0  0  0  0  0  0  0  0  0  0
   -4.4830   15.6097    0.0098 H   0  0  0  0  0  0  0  0  0  0  0  0
  1  3  1  0  0  0  0
  1  8  2  0  0  0  0
  2  8  1  0  0  0  0
  2  9  2  0  0  0  0
  3  4  2  0  0  0  0
  3 10  1  0  0  0  0
  4  9  1  0  0  0  0
  4 11  1  0  0  0  0
  5  6  1  0  0  0  0
  5 10  1  0  0  0  0
  6 11  1  0  0  0  0
  7 11  1  0  0  0  0
  1 12  1  0  0  0  0
  2 13  1  0  0  0  0
  5 14  1  0  0  0  0
  5 15  1  0  0  0  0
  6 16  1  0  0  0  0
  6 17  1  0  0  0  0
  7 18  1  0  0  0  0
  7 19  1  0  0  0  0
  7 20  1  0  0  0  0
 10 21  1  0  0  0  0
M  END
> <HYBRID receptor title>
5S18(A) > WOY(A-201)

> <HYBRID receptor filename>
data/docking/5s18.oedu

> <HYBRID Chemgauss4 score>
-5.507536

> <HYBRID receptor title>
5S18(A) > WOY(A-201)

> <HYBRID receptor filename>
data/docking/5s18.oedu

> <Dock Type>
Hybrid

$$$$
MOL0033
  -OEChem-07032400353D

 19 20  0     0  0  0  0  0  0999 V2000
   -3.4093   14.7106   -1.3844 C   0  0  0  0  0  0  0  0  0  0  0  0
   -2.0481   14.5583   -1.1456 C   0  0  0  0  0  0  0  0  0  0  0  0
   -4.2234   15.0083   -0.3086 C   0  0  0  0  0  0  0  0  0  0  0  0
   -3.6786   15.1389    0.9655 C   0  0  0  0  0  0  0  0  0  0  0  0
   -1.5827   14.7078    0.1586 C   0  0  0  0  0  0  0  0  0  0  0  0
   -5.7025   15.1984   -0.2666 C   0  0  0  0  0  0  0  0  0  0  0  0
   -5.9191   15.6691    1.1871 C   0  0  0  0  0  0  0  0  0  0  0  0
   -2.3665   14.9939    1.2274 N   0  0  0  0  0  0  0  0  0  0  0  0
   -4.6789   15.4299    1.9029 N   0  0  0  0  0  0  0  0  0  0  0  0
   -0.1731   14.5347    0.3291 N   0  3  0  0  0  0  0  0  0  0  0  0
    0.5220   14.2693   -0.6747 O   0  5  0  0  0  0  0  0  0  0  0  0
    0.3092   14.6558    1.4758 O   0  0  0  0  0  0  0  0  0  0  0  0
   -3.8151   14.5966   -2.3835 H   0  0  0  0  0  0  0  0  0  0  0  0
   -1.3796   14.3249   -1.9691 H   0  0  0  0  0  0  0  0  0  0  0  0
   -6.0354   15.9545   -0.9834 H   0  0  0  0  0  0  0  0  0  0  0  0
   -6.2131   14.2481   -0.4518 H   0  0  0  0  0  0  0  0  0  0  0  0
   -6.1491   16.7410    1.2052 H   0  0  0  0  0  0  0  0  0  0  0  0
   -6.7555   15.1395    1.6550 H   0  0  0  0  0  0  0  0  0  0  0  0
   -4.5103   15.6165    2.8791 H   0  0  0  0  0  0  0  0  0  0  0  0
  1  2  2  0  0  0  0
  1  3  1  0  0  0  0
  2  5  1  0  0  0  0
  3  4  2  0  0  0  0
  3  6  1  0  0  0  0
  4  8  1  0  0  0  0
  4  9  1  0  0  0  0
  5  8  2  0  0  0  0
  5 10  1  0  0  0  0
  6  7  1  0  0  0  0
  7  9  1  0  0  0  0
 10 11  1  0  0  0  0
 10 12  2  0  0  0  0
  1 13  1  0  0  0  0
  2 14  1  0  0  0  0
  6 15  1  0  0  0  0
  6 16  1  0  0  0  0
  7 17  1  0  0  0  0
  7 18  1  0  0  0  0
  9 19  1  0  0  0  0
M  CHG  2  10   1  11  -1
M  END
> <HYBRID receptor title>
5S18(A) > WOY(A-201)

> <HYBRID receptor filename>
data/docking/5s18.oedu

> <HYBRID Chemgauss4 score>
-5.462221

> <HYBRID receptor title>
5S18(A) > WOY(A-201)

> <HYBRID receptor filename>
data/docking/5s18.oedu

> <Dock Type>
Hybrid

$$$$
MOL0105
  -OEChem-07032400353D

 25 27  0     0  0  0  0  0  0999 V2000
    0.4991   14.6374    0.1423 C   0  0  0  0  0  0  0  0  0  0  0  0
   -0.5434   14.5086   -0.7687 C   0  0  0  0  0  0  0  0  0  0  0  0
    0.1748   14.8480    1.4733 C   0  0  0  0  0  0  0  0  0  0  0  0
   -2.0783   14.8055    1.0238 C   0  0  0  0  0  0  0  0  0  0  0  0
   -3.7880   13.5707   -3.1808 C   0  0  0  0  0  0  0  0  0  0  0  0
   -1.8593   14.5930   -0.3278 C   0  0  0  0  0  0  0  0  0  0  0  0
   -4.9782   14.2092   -2.9521 C   0  0  0  0  0  0  0  0  0  0  0  0
   -5.0876   14.9892   -1.8133 C   0  0  0  0  0  0  0  0  0  0  0  0
   -2.9608   14.4648   -1.2471 C   0  0  0  0  0  0  0  0  0  0  0  0
   -6.2326   14.2495   -3.7502 C   0  0  0  0  0  0  0  0  0  0  0  0
   -7.1741   15.0349   -2.8109 C   0  0  0  0  0  0  0  0  0  0  0  0
   -1.0916   14.9356    1.9386 N   0  0  0  0  0  0  0  0  0  0  0  0
   -2.7469   13.6799   -2.3301 N   0  0  0  0  0  0  0  0  0  0  0  0
   -4.0863   15.1406   -0.9309 N   0  0  0  0  0  0  0  0  0  0  0  0
   -6.3570   15.5750   -1.7376 N   0  0  0  0  0  0  0  0  0  0  0  0
    1.5324   14.5761   -0.1796 H   0  0  0  0  0  0  0  0  0  0  0  0
   -0.3151   14.3429   -1.8185 H   0  0  0  0  0  0  0  0  0  0  0  0
    0.9509   14.9554    2.2240 H   0  0  0  0  0  0  0  0  0  0  0  0
   -3.0820   14.8820    1.4321 H   0  0  0  0  0  0  0  0  0  0  0  0
   -3.6239   12.9502   -4.0533 H   0  0  0  0  0  0  0  0  0  0  0  0
   -6.0732   14.7907   -4.6881 H   0  0  0  0  0  0  0  0  0  0  0  0
   -6.6189   13.2462   -3.9514 H   0  0  0  0  0  0  0  0  0  0  0  0
   -7.6944   15.8332   -3.3503 H   0  0  0  0  0  0  0  0  0  0  0  0
   -7.9329   14.3646   -2.3904 H   0  0  0  0  0  0  0  0  0  0  0  0
   -6.6806   16.1479   -0.9741 H   0  0  0  0  0  0  0  0  0  0  0  0
  1  2  2  0  0  0  0
  1  3  1  0  0  0  0
  2  6  1  0  0  0  0
  3 12  2  0  0  0  0
  4  6  2  0  0  0  0
  4 12  1  0  0  0  0
  5  7  1  0  0  0  0
  5 13  2  0  0  0  0
  6  9  1  0  0  0  0
  7  8  2  0  0  0  0
  7 10  1  0  0  0  0
  8 14  1  0  0  0  0
  8 15  1  0  0  0  0
  9 13  1  0  0  0  0
  9 14  2  0  0  0  0
 10 11  1  0  0  0  0
 11 15  1  0  0  0  0
  1 16  1  0  0  0  0
  2 17  1  0  0  0  0
  3 18  1  0  0  0  0
  4 19  1  0  0  0  0
  5 20  1  0  0  0  0
 10 21  1  0  0  0  0
 10 22  1  0  0  0  0
 11 23  1  0  0  0  0
 11 24  1  0  0  0  0
 15 25  1  0  0  0  0
M  END
> <HYBRID receptor title>
5S18(A) > WOY(A-201)

> <HYBRID receptor filename>
data/docking/5s18.oedu

> <HYBRID Chemgauss4 score>
-5.402446

> <HYBRID receptor title>
5S18(A) > WOY(A-201)

> <HYBRID receptor filename>
data/docking/5s18.oedu

> <Dock Type>
Hybrid

$$$$
MOL0074
  -OEChem-07032400353D

 17 18  0     0  0  0  0  0  0999 V2000
   -1.2046   14.5303   -1.1819 C   0  0  0  0  0  0  0  0  0  0  0  0
   -0.0170   14.4025   -0.4704 C   0  0  0  0  0  0  0  0  0  0  0  0
   -2.3351   14.9136   -0.4865 C   0  0  0  0  0  0  0  0  0  0  0  0
   -2.2665   15.1510    0.8833 C   0  0  0  0  0  0  0  0  0  0  0  0
   -0.0328   14.6611    0.8981 C   0  0  0  0  0  0  0  0  0  0  0  0
   -3.7302   15.1019   -0.9802 C   0  0  0  0  0  0  0  0  0  0  0  0
   -4.4286   15.6908    0.2637 C   0  0  0  0  0  0  0  0  0  0  0  0
   -1.1327   15.0324    1.5987 N   0  0  0  0  0  0  0  0  0  0  0  0
   -3.5232   15.5156    1.3850 N   0  0  0  0  0  0  0  0  0  0  0  0
    1.3987   14.5198    1.8363 Cl  0  0  0  0  0  0  0  0  0  0  0  0
   -1.2379   14.3320   -2.2474 H   0  0  0  0  0  0  0  0  0  0  0  0
    0.8934   14.1044   -0.9801 H   0  0  0  0  0  0  0  0  0  0  0  0
   -3.7720   15.7953   -1.8251 H   0  0  0  0  0  0  0  0  0  0  0  0
   -4.1689   14.1381   -1.2575 H   0  0  0  0  0  0  0  0  0  0  0  0
   -4.6228   16.7597    0.1156 H   0  0  0  0  0  0  0  0  0  0  0  0
   -5.3889   15.1988    0.4492 H   0  0  0  0  0  0  0  0  0  0  0  0
   -3.7009   15.7841    2.3402 H   0  0  0  0  0  0  0  0  0  0  0  0
  1  2  2  0  0  0  0
  1  3  1  0  0  0  0
  2  5  1  0  0  0  0
  3  4  2  0  0  0  0
  3  6  1  0  0  0  0
  4  8  1  0  0  0  0
  4  9  1  0  0  0  0
  5  8  2  0  0  0  0
  5 10  1  0  0  0  0
  6  7  1  0  0  0  0
  7  9  1  0  0  0  0
  1 11  1  0  0  0  0
  2 12  1  0  0  0  0
  6 13  1  0  0  0  0
  6 14  1  0  0  0  0
  7 15  1  0  0  0  0
  7 16  1  0  0  0  0
  9 17  1  0  0  0  0
M  END
> <HYBRID receptor title>
5S18(A) > WOY(A-201)

> <HYBRID receptor filename>
data/docking/5s18.oedu

> <HYBRID Chemgauss4 score>
-5.364340

> <HYBRID receptor title>
5S18(A) > WOY(A-201)

> <HYBRID receptor filename>
data/docking/5s18.oedu

> <Dock Type>
Hybrid

$$$$
MOL0168
  -OEChem-07032400353D

 19 20  0     1  0  0  0  0  0999 V2000
   -2.7298   15.4114    1.4352 C   0  0  0  0  0  0  0  0  0  0  0  0
   -0.6846   14.5379    0.8781 C   0  0  0  0  0  0  0  0  0  0  0  0
   -3.1566   15.2007    0.1530 C   0  0  0  0  0  0  0  0  0  0  0  0
   -2.2539   14.6371   -0.7234 C   0  0  0  0  0  0  0  0  0  0  0  0
   -4.4576   15.4326   -0.5180 C   0  0  0  0  0  0  0  0  0  0  0  0
   -2.9220   14.4399   -2.0566 C   0  0  2  0  0  0  0  0  0  0  0  0
   -2.1007   14.9675   -3.2224 C   0  0  0  0  0  0  0  0  0  0  0  0
   -1.4787   15.0894    1.8300 N   0  0  0  0  0  0  0  0  0  0  0  0
   -1.0026   14.2778   -0.4076 N   0  0  0  0  0  0  0  0  0  0  0  0
   -4.2008   15.1884   -1.9561 N   0  0  0  0  0  0  0  0  0  0  0  0
   -3.3703   15.8421    2.1951 H   0  0  0  0  0  0  0  0  0  0  0  0
    0.3196   14.2744    1.1885 H   0  0  0  0  0  0  0  0  0  0  0  0
   -5.2057   14.7260   -0.1432 H   0  0  0  0  0  0  0  0  0  0  0  0
   -4.8112   16.4573   -0.3736 H   0  0  0  0  0  0  0  0  0  0  0  0
   -3.1341   13.3719   -2.1869 H   0  0  0  0  0  0  0  0  0  0  0  0
   -1.8936   16.0298   -3.0860 H   0  0  0  0  0  0  0  0  0  0  0  0
   -2.6459   14.8329   -4.1576 H   0  0  0  0  0  0  0  0  0  0  0  0
   -1.1525   14.4304   -3.2884 H   0  0  0  0  0  0  0  0  0  0  0  0
   -4.9617   14.6503   -2.3681 H   0  0  0  0  0  0  0  0  0  0  0  0
  1  3  1  0  0  0  0
  1  8  2  0  0  0  0
  2  8  1  0  0  0  0
  2  9  2  0  0  0  0
  3  4  2  0  0  0  0
  3  5  1  0  0  0  0
  4  6  1  0  0  0  0
  4  9  1  0  0  0  0
  5 10  1  0  0  0  0
  6  7  1  0  0  0  0
  6 10  1  0  0  0  0
  1 11  1  0  0  0  0
  2 12  1  0  0  0  0
  5 13  1  0  0  0  0
  5 14  1  0  0  0  0
  6 15  1  0  0  0  0
  7 16  1  0  0  0  0
  7 17  1  0  0  0  0
  7 18  1  0  0  0  0
 10 19  1  0  0  0  0
M  END
> <HYBRID receptor title>
5S18(A) > WOY(A-201)

> <HYBRID receptor filename>
data/docking/5s18.oedu

> <HYBRID Chemgauss4 score>
-5.359660

> <HYBRID receptor title>
5S18(A) > WOY(A-201)

> <HYBRID receptor filename>
data/docking/5s18.oedu

> <Dock Type>
Hybrid

$$$$
MOL0167
  -OEChem-07032400353D

 20 21  0     0  0  0  0  0  0999 V2000
   -3.0474   14.9415   -1.3619 C   0  0  0  0  0  0  0  0  0  0  0  0
   -1.6953   14.8009   -1.0701 C   0  0  0  0  0  0  0  0  0  0  0  0
   -3.8914   15.3271   -0.3384 C   0  0  0  0  0  0  0  0  0  0  0  0
   -1.2686   15.0497    0.2321 C   0  0  0  0  0  0  0  0  0  0  0  0
   -3.3845   15.5543    0.9378 C   0  0  0  0  0  0  0  0  0  0  0  0
   -5.3695   15.5280   -0.3570 C   0  0  0  0  0  0  0  0  0  0  0  0
   -5.6264   16.1125    1.0481 C   0  0  0  0  0  0  0  0  0  0  0  0
    0.1806   14.9033    0.5601 C   0  0  0  0  0  0  0  0  0  0  0  0
   -2.0821   15.4232    1.2506 N   0  0  0  0  0  0  0  0  0  0  0  0
   -4.4103   15.9234    1.8183 N   0  0  0  0  0  0  0  0  0  0  0  0
    0.9481   14.5260   -0.5039 F   0  0  0  0  0  0  0  0  0  0  0  0
    0.4064   13.9667    1.5261 F   0  0  0  0  0  0  0  0  0  0  0  0
    0.7510   16.0541    1.0231 F   0  0  0  0  0  0  0  0  0  0  0  0
   -3.4228   14.7504   -2.3609 H   0  0  0  0  0  0  0  0  0  0  0  0
   -0.9972   14.5011   -1.8450 H   0  0  0  0  0  0  0  0  0  0  0  0
   -5.6757   16.2271   -1.1407 H   0  0  0  0  0  0  0  0  0  0  0  0
   -5.8818   14.5688   -0.4819 H   0  0  0  0  0  0  0  0  0  0  0  0
   -5.8494   17.1835    0.9757 H   0  0  0  0  0  0  0  0  0  0  0  0
   -6.4801   15.6249    1.5299 H   0  0  0  0  0  0  0  0  0  0  0  0
   -4.2693   16.1839    2.7818 H   0  0  0  0  0  0  0  0  0  0  0  0
  1  2  2  0  0  0  0
  1  3  1  0  0  0  0
  2  4  1  0  0  0  0
  3  5  2  0  0  0  0
  3  6  1  0  0  0  0
  4  8  1  0  0  0  0
  4  9  2  0  0  0  0
  5  9  1  0  0  0  0
  5 10  1  0  0  0  0
  6  7  1  0  0  0  0
  7 10  1  0  0  0  0
  8 11  1  0  0  0  0
  8 12  1  0  0  0  0
  8 13  1  0  0  0  0
  1 14  1  0  0  0  0
  2 15  1  0  0  0  0
  6 16  1  0  0  0  0
  6 17  1  0  0  0  0
  7 18  1  0  0  0  0
  7 19  1  0  0  0  0
 10 20  1  0  0  0  0
M  END
> <HYBRID receptor title>
5S18(A) > WOY(A-201)

> <HYBRID receptor filename>
data/docking/5s18.oedu

> <HYBRID Chemgauss4 score>
-5.344390

> <HYBRID receptor title>
5S18(A) > WOY(A-201)

> <HYBRID receptor filename>
data/docking/5s18.oedu

> <Dock Type>
Hybrid

$$$$
MOL0133
  -OEChem-07032400353D

 22 23  0     0  0  0  0  0  0999 V2000
    0.3017   14.7964    1.1379 C   0  0  0  0  0  0  0  0  0  0  0  0
   -1.7467   14.5657   -0.5877 C   0  0  0  0  0  0  0  0  0  0  0  0
   -1.9492   14.8134    0.7660 C   0  0  0  0  0  0  0  0  0  0  0  0
   -0.4266   14.4257   -0.9820 C   0  0  0  0  0  0  0  0  0  0  0  0
   -2.8918   14.3870   -1.5390 C   0  0  0  0  0  0  0  0  0  0  0  0
   -3.3488   15.0095    1.2869 C   0  0  0  0  0  0  0  0  0  0  0  0
   -4.4104   14.4555    0.3338 C   0  0  0  0  0  0  0  0  0  0  0  0
   -0.0791   14.1178   -2.4017 C   0  0  0  0  0  0  0  0  0  0  0  0
   -0.9346   14.9436    1.6500 N   0  0  0  0  0  0  0  0  0  0  0  0
    0.6237   14.5398   -0.1437 N   0  0  0  0  0  0  0  0  0  0  0  0
   -4.1604   14.9251   -1.0303 N   0  0  0  0  0  0  0  0  0  0  0  0
    1.1269   14.8950    1.8327 H   0  0  0  0  0  0  0  0  0  0  0  0
   -2.6791   14.8922   -2.4878 H   0  0  0  0  0  0  0  0  0  0  0  0
   -3.0156   13.3190   -1.7559 H   0  0  0  0  0  0  0  0  0  0  0  0
   -3.4486   14.5239    2.2644 H   0  0  0  0  0  0  0  0  0  0  0  0
   -3.5076   16.0853    1.4328 H   0  0  0  0  0  0  0  0  0  0  0  0
   -4.4212   13.3585    0.3570 H   0  0  0  0  0  0  0  0  0  0  0  0
   -5.4029   14.7876    0.6571 H   0  0  0  0  0  0  0  0  0  0  0  0
    0.0578   15.0369   -2.9848 H   0  0  0  0  0  0  0  0  0  0  0  0
   -0.8779   13.5455   -2.8898 H   0  0  0  0  0  0  0  0  0  0  0  0
    0.8474   13.5337   -2.4476 H   0  0  0  0  0  0  0  0  0  0  0  0
   -4.1158   15.9446   -1.0300 H   0  0  0  0  0  0  0  0  0  0  0  0
  1  9  1  0  0  0  0
  1 10  2  0  0  0  0
  2  3  1  0  0  0  0
  2  4  2  0  0  0  0
  2  5  1  0  0  0  0
  3  6  1  0  0  0  0
  3  9  2  0  0  0  0
  4  8  1  0  0  0  0
  4 10  1  0  0  0  0
  5 11  1  0  0  0  0
  6  7  1  0  0  0  0
  7 11  1  0  0  0  0
  1 12  1  0  0  0  0
  5 13  1  0  0  0  0
  5 14  1  0  0  0  0
  6 15  1  0  0  0  0
  6 16  1  0  0  0  0
  7 17  1  0  0  0  0
  7 18  1  0  0  0  0
  8 19  1  0  0  0  0
  8 20  1  0  0  0  0
  8 21  1  0  0  0  0
 11 22  1  0  0  0  0
M  END
> <HYBRID receptor title>
5S18(A) > WOY(A-201)

> <HYBRID receptor filename>
data/docking/5s18.oedu

> <HYBRID Chemgauss4 score>
-5.309824

> <HYBRID receptor title>
5S18(A) > WOY(A-201)

> <HYBRID receptor filename>
data/docking/5s18.oedu

> <Dock Type>
Hybrid

$$$$
MOL0147
  -OEChem-07032400353D

 14 15  0     0  0  0  0  0  0999 V2000
    0.3298   14.7672   -0.2292 C   0  0  0  0  0  0  0  0  0  0  0  0
    0.0709   14.9153    1.1261 C   0  0  0  0  0  0  0  0  0  0  0  0
   -2.2527   14.8246    0.9004 C   0  0  0  0  0  0  0  0  0  0  0  0
   -2.3505   14.4226   -2.5825 C   0  0  0  0  0  0  0  0  0  0  0  0
   -2.0995   14.6710   -0.4775 C   0  0  0  0  0  0  0  0  0  0  0  0
   -0.8134   14.6463   -1.0075 C   0  0  0  0  0  0  0  0  0  0  0  0
   -1.1599   14.9460    1.6944 N   0  0  0  0  0  0  0  0  0  0  0  0
   -3.0416   14.5310   -1.4695 N   0  0  0  0  0  0  0  0  0  0  0  0
   -1.0032   14.4864   -2.3557 N   0  0  0  0  0  0  0  0  0  0  0  0
    1.3300   14.7483   -0.6394 H   0  0  0  0  0  0  0  0  0  0  0  0
    0.8940   15.0183    1.8279 H   0  0  0  0  0  0  0  0  0  0  0  0
   -3.2159   14.8538    1.3943 H   0  0  0  0  0  0  0  0  0  0  0  0
   -2.7589   14.2976   -3.5749 H   0  0  0  0  0  0  0  0  0  0  0  0
   -0.2774   14.4248   -3.0570 H   0  0  0  0  0  0  0  0  0  0  0  0
  1  2  1  0  0  0  0
  1  6  2  0  0  0  0
  2  7  2  0  0  0  0
  3  5  2  0  0  0  0
  3  7  1  0  0  0  0
  4  8  2  0  0  0  0
  4  9  1  0  0  0  0
  5  6  1  0  0  0  0
  5  8  1  0  0  0  0
  6  9  1  0  0  0  0
  1 10  1  0  0  0  0
  2 11  1  0  0  0  0
  3 12  1  0  0  0  0
  4 13  1  0  0  0  0
  9 14  1  0  0  0  0
M  END
> <HYBRID receptor title>
5S18(A) > WOY(A-201)

> <HYBRID receptor filename>
data/docking/5s18.oedu

> <HYBRID Chemgauss4 score>
-5.187247

> <HYBRID receptor title>
5S18(A) > WOY(A-201)

> <HYBRID receptor filename>
data/docking/5s18.oedu

> <Dock Type>
Hybrid

$$$$
MOL0061
  -OEChem-07032400353D

 22 23  0     1  0  0  0  0  0999 V2000
   -0.5297   14.9998    1.1216 C   0  0  0  0  0  0  0  0  0  0  0  0
   -2.7840   14.8268    1.3058 C   0  0  0  0  0  0  0  0  0  0  0  0
   -0.5987   14.8599   -0.2547 C   0  0  0  0  0  0  0  0  0  0  0  0
   -1.8761   14.7299   -0.7937 C   0  0  0  0  0  0  0  0  0  0  0  0
    0.6230   14.9050   -1.1201 C   0  0  0  0  0  0  0  0  0  0  0  0
    0.3488   14.3477   -2.5171 C   0  0  0  0  0  0  0  0  0  0  0  0
   -2.0521   14.5319   -2.2895 C   0  0  1  0  0  0  0  0  0  0  0  0
   -3.2576   15.3066   -2.8312 C   0  0  0  0  0  0  0  0  0  0  0  0
   -1.6056   14.9860    1.9330 N   0  0  0  0  0  0  0  0  0  0  0  0
   -2.9856   14.6907   -0.0188 N   0  0  0  0  0  0  0  0  0  0  0  0
   -0.8705   14.9323   -3.0770 N   0  0  0  0  0  0  0  0  0  0  0  0
    0.4222   15.1269    1.6275 H   0  0  0  0  0  0  0  0  0  0  0  0
   -3.6667   14.8045    1.9330 H   0  0  0  0  0  0  0  0  0  0  0  0
    0.9555   15.9477   -1.1973 H   0  0  0  0  0  0  0  0  0  0  0  0
    1.4325   14.3274   -0.6588 H   0  0  0  0  0  0  0  0  0  0  0  0
    1.1945   14.5754   -3.1752 H   0  0  0  0  0  0  0  0  0  0  0  0
    0.2594   13.2542   -2.4889 H   0  0  0  0  0  0  0  0  0  0  0  0
   -2.2304   13.4620   -2.4592 H   0  0  0  0  0  0  0  0  0  0  0  0
   -3.1063   16.3717   -2.6753 H   0  0  0  0  0  0  0  0  0  0  0  0
   -4.1579   14.9904   -2.3106 H   0  0  0  0  0  0  0  0  0  0  0  0
   -3.3693   15.1105   -3.8953 H   0  0  0  0  0  0  0  0  0  0  0  0
   -0.7873   15.9493   -3.0753 H   0  0  0  0  0  0  0  0  0  0  0  0
  1  3  1  0  0  0  0
  1  9  2  0  0  0  0
  2  9  1  0  0  0  0
  2 10  2  0  0  0  0
  3  4  2  0  0  0  0
  3  5  1  0  0  0  0
  4  7  1  0  0  0  0
  4 10  1  0  0  0  0
  5  6  1  0  0  0  0
  6 11  1  0  0  0  0
  7  8  1  0  0  0  0
  7 11  1  0  0  0  0
  1 12  1  0  0  0  0
  2 13  1  0  0  0  0
  5 14  1  0  0  0  0
  5 15  1  0  0  0  0
  6 16  1  0  0  0  0
  6 17  1  0  0  0  0
  7 18  1  0  0  0  0
  8 19  1  0  0  0  0
  8 20  1  0  0  0  0
  8 21  1  0  0  0  0
 11 22  1  0  0  0  0
M  END
> <HYBRID receptor title>
5S18(A) > WOY(A-201)

> <HYBRID receptor filename>
data/docking/5s18.oedu

> <HYBRID Chemgauss4 score>
-5.147937

> <HYBRID receptor title>
5S18(A) > WOY(A-201)

> <HYBRID receptor filename>
data/docking/5s18.oedu

> <Dock Type>
Hybrid

$$$$
MOL0098
  -OEChem-07032400353D

 20 21  0     0  0  0  0  0  0999 V2000
   -0.7517   14.7840   -0.4750 C   0  0  0  0  0  0  0  0  0  0  0  0
   -0.4991   14.7434    0.8866 C   0  0  0  0  0  0  0  0  0  0  0  0
   -2.7377   14.6761    1.3967 C   0  0  0  0  0  0  0  0  0  0  0  0
   -2.0813   14.7610   -0.8984 C   0  0  0  0  0  0  0  0  0  0  0  0
   -3.1062   14.7248    0.0560 C   0  0  0  0  0  0  0  0  0  0  0  0
   -2.4182   14.8402   -2.3649 C   0  0  0  0  0  0  0  0  0  0  0  0
   -4.5508   14.6713   -0.3580 C   0  0  0  0  0  0  0  0  0  0  0  0
   -3.8660   14.4349   -2.6559 C   0  0  0  0  0  0  0  0  0  0  0  0
   -1.4593   14.6871    1.8351 N   0  0  0  0  0  0  0  0  0  0  0  0
   -4.7793   15.1168   -1.7385 N   0  0  0  0  0  0  0  0  0  0  0  0
    0.0660   14.8327   -1.1860 H   0  0  0  0  0  0  0  0  0  0  0  0
    0.5190   14.7567    1.2619 H   0  0  0  0  0  0  0  0  0  0  0  0
   -3.4861   14.6230    2.1817 H   0  0  0  0  0  0  0  0  0  0  0  0
   -2.2523   15.8727   -2.6981 H   0  0  0  0  0  0  0  0  0  0  0  0
   -1.7463   14.1903   -2.9376 H   0  0  0  0  0  0  0  0  0  0  0  0
   -4.9151   13.6437   -0.2369 H   0  0  0  0  0  0  0  0  0  0  0  0
   -5.1422   15.3142    0.3038 H   0  0  0  0  0  0  0  0  0  0  0  0
   -4.1147   14.7074   -3.6875 H   0  0  0  0  0  0  0  0  0  0  0  0
   -3.9886   13.3473   -2.5736 H   0  0  0  0  0  0  0  0  0  0  0  0
   -5.7431   14.9101   -1.9992 H   0  0  0  0  0  0  0  0  0  0  0  0
  1  2  1  0  0  0  0
  1  4  2  0  0  0  0
  2  9  2  0  0  0  0
  3  5  2  0  0  0  0
  3  9  1  0  0  0  0
  4  5  1  0  0  0  0
  4  6  1  0  0  0  0
  5  7  1  0  0  0  0
  6  8  1  0  0  0  0
  7 10  1  0  0  0  0
  8 10  1  0  0  0  0
  1 11  1  0  0  0  0
  2 12  1  0  0  0  0
  3 13  1  0  0  0  0
  6 14  1  0  0  0  0
  6 15  1  0  0  0  0
  7 16  1  0  0  0  0
  7 17  1  0  0  0  0
  8 18  1  0  0  0  0
  8 19  1  0  0  0  0
 10 20  1  0  0  0  0
M  END
> <HYBRID receptor title>
5S18(A) > WOY(A-201)

> <HYBRID receptor filename>
data/docking/5s18.oedu

> <HYBRID Chemgauss4 score>
-5.126735

> <HYBRID receptor title>
5S18(A) > WOY(A-201)

> <HYBRID receptor filename>
data/docking/5s18.oedu

> <Dock Type>
Hybrid

$$$$
MOL0008
  -OEChem-07032400353D

 16 17  0     0  0  0  0  0  0999 V2000
   -2.7184   15.3645    1.3852 C   0  0  0  0  0  0  0  0  0  0  0  0
   -0.5982   14.5946    0.9686 C   0  0  0  0  0  0  0  0  0  0  0  0
   -2.9727   15.3567    0.0417 C   0  0  0  0  0  0  0  0  0  0  0  0
   -1.9536   14.9363   -0.7849 C   0  0  0  0  0  0  0  0  0  0  0  0
   -4.1767   15.6957   -0.7525 C   0  0  0  0  0  0  0  0  0  0  0  0
   -2.4280   14.9656   -2.2052 C   0  0  0  0  0  0  0  0  0  0  0  0
   -1.5208   14.9858    1.8845 N   0  0  0  0  0  0  0  0  0  0  0  0
   -0.7428   14.5403   -0.3723 N   0  0  0  0  0  0  0  0  0  0  0  0
   -3.7330   15.6638   -2.1657 N   0  0  0  0  0  0  0  0  0  0  0  0
   -3.4594   15.6711    2.1132 H   0  0  0  0  0  0  0  0  0  0  0  0
    0.3643   14.2892    1.3617 H   0  0  0  0  0  0  0  0  0  0  0  0
   -4.9603   14.9488   -0.5869 H   0  0  0  0  0  0  0  0  0  0  0  0
   -4.5568   16.6912   -0.5064 H   0  0  0  0  0  0  0  0  0  0  0  0
   -1.7279   15.5066   -2.8477 H   0  0  0  0  0  0  0  0  0  0  0  0
   -2.5547   13.9419   -2.5727 H   0  0  0  0  0  0  0  0  0  0  0  0
   -4.4162   15.1768   -2.7436 H   0  0  0  0  0  0  0  0  0  0  0  0
  1  3  1  0  0  0  0
  1  7  2  0  0  0  0
  2  7  1  0  0  0  0
  2  8  2  0  0  0  0
  3  4  2  0  0  0  0
  3  5  1  0  0  0  0
  4  6  1  0  0  0  0
  4  8  1  0  0  0  0
  5  9  1  0  0  0  0
  6  9  1  0  0  0  0
  1 10  1  0  0  0  0
  2 11  1  0  0  0  0
  5 12  1  0  0  0  0
  5 13  1  0  0  0  0
  6 14  1  0  0  0  0
  6 15  1  0  0  0  0
  9 16  1  0  0  0  0
M  END
> <HYBRID receptor title>
5S18(A) > WOY(A-201)

> <HYBRID receptor filename>
data/docking/5s18.oedu

> <HYBRID Chemgauss4 score>
-5.091827

> <HYBRID receptor title>
5S18(A) > WOY(A-201)

> <HYBRID receptor filename>
data/docking/5s18.oedu

> <Dock Type>
Hybrid

$$$$
MOL0053
  -OEChem-07032400353D

 17 18  0     0  0  0  0  0  0999 V2000
    0.2230   14.7257    0.7334 C   0  0  0  0  0  0  0  0  0  0  0  0
   -2.7677   14.4482   -1.2063 C   0  0  0  0  0  0  0  0  0  0  0  0
   -1.1565   14.7478    0.3864 C   0  0  0  0  0  0  0  0  0  0  0  0
   -3.7244   14.7768   -0.2825 C   0  0  0  0  0  0  0  0  0  0  0  0
   -3.3066   15.0953    0.9986 C   0  0  0  0  0  0  0  0  0  0  0  0
   -5.2021   14.8904   -0.4068 C   0  0  0  0  0  0  0  0  0  0  0  0
   -5.6184   15.1520    1.0574 C   0  0  0  0  0  0  0  0  0  0  0  0
    1.3484   14.7077    1.0164 N   0  0  0  0  0  0  0  0  0  0  0  0
   -1.4559   14.4221   -0.8939 N   0  0  0  0  0  0  0  0  0  0  0  0
   -2.0158   15.0913    1.3698 N   0  0  0  0  0  0  0  0  0  0  0  0
   -4.4028   15.4147    1.8090 N   0  0  0  0  0  0  0  0  0  0  0  0
   -3.0161   14.1955   -2.2299 H   0  0  0  0  0  0  0  0  0  0  0  0
   -5.4692   15.7363   -1.0477 H   0  0  0  0  0  0  0  0  0  0  0  0
   -5.6501   13.9684   -0.7882 H   0  0  0  0  0  0  0  0  0  0  0  0
   -6.3141   15.9947    1.1258 H   0  0  0  0  0  0  0  0  0  0  0  0
   -6.1197   14.2690    1.4709 H   0  0  0  0  0  0  0  0  0  0  0  0
   -4.3463   15.6355    2.7907 H   0  0  0  0  0  0  0  0  0  0  0  0
  1  3  1  0  0  0  0
  1  8  3  0  0  0  0
  2  4  1  0  0  0  0
  2  9  2  0  0  0  0
  3  9  1  0  0  0  0
  3 10  2  0  0  0  0
  4  5  2  0  0  0  0
  4  6  1  0  0  0  0
  5 10  1  0  0  0  0
  5 11  1  0  0  0  0
  6  7  1  0  0  0  0
  7 11  1  0  0  0  0
  2 12  1  0  0  0  0
  6 13  1  0  0  0  0
  6 14  1  0  0  0  0
  7 15  1  0  0  0  0
  7 16  1  0  0  0  0
 11 17  1  0  0  0  0
M  END
> <HYBRID receptor title>
5S18(A) > WOY(A-201)

> <HYBRID receptor filename>
data/docking/5s18.oedu

> <HYBRID Chemgauss4 score>
-5.064866

> <HYBRID receptor title>
5S18(A) > WOY(A-201)

> <HYBRID receptor filename>
data/docking/5s18.oedu

> <Dock Type>
Hybrid

$$$$
MOL0184
  -OEChem-07032400353D

 14 15  0     0  0  0  0  0  0999 V2000
   -1.9654   14.6185   -0.1489 C   0  0  0  0  0  0  0  0  0  0  0  0
   -2.1799   14.9242    1.1903 C   0  0  0  0  0  0  0  0  0  0  0  0
    0.0579   14.6830    1.8072 C   0  0  0  0  0  0  0  0  0  0  0  0
    1.1873   13.8325   -1.4807 C   0  0  0  0  0  0  0  0  0  0  0  0
   -0.6420   14.3311   -0.4981 C   0  0  0  0  0  0  0  0  0  0  0  0
    0.3395   14.3696    0.4878 C   0  0  0  0  0  0  0  0  0  0  0  0
   -1.2228   14.9615    2.1495 N   0  0  0  0  0  0  0  0  0  0  0  0
   -0.0959   13.9949   -1.7157 N   0  0  0  0  0  0  0  0  0  0  0  0
    1.4989   14.0470   -0.1664 N   0  0  0  0  0  0  0  0  0  0  0  0
   -2.7742   14.6040   -0.8689 H   0  0  0  0  0  0  0  0  0  0  0  0
   -3.1807   15.1582    1.5416 H   0  0  0  0  0  0  0  0  0  0  0  0
    0.8035   14.7187    2.5898 H   0  0  0  0  0  0  0  0  0  0  0  0
    1.9379   13.5645   -2.2105 H   0  0  0  0  0  0  0  0  0  0  0  0
    2.4199   13.9796    0.2459 H   0  0  0  0  0  0  0  0  0  0  0  0
  1  2  1  0  0  0  0
  1  5  2  0  0  0  0
  2  7  2  0  0  0  0
  3  6  2  0  0  0  0
  3  7  1  0  0  0  0
  4  8  2  0  0  0  0
  4  9  1  0  0  0  0
  5  6  1  0  0  0  0
  5  8  1  0  0  0  0
  6  9  1  0  0  0  0
  1 10  1  0  0  0  0
  2 11  1  0  0  0  0
  3 12  1  0  0  0  0
  4 13  1  0  0  0  0
  9 14  1  0  0  0  0
M  END
> <HYBRID receptor title>
5S18(A) > WOY(A-201)

> <HYBRID receptor filename>
data/docking/5s18.oedu

> <HYBRID Chemgauss4 score>
-5.043610

> <HYBRID receptor title>
5S18(A) > WOY(A-201)

> <HYBRID receptor filename>
data/docking/5s18.oedu

> <Dock Type>
Hybrid

$$$$
MOL0130
  -OEChem-07032400353D

 17 18  0     0  0  0  0  0  0999 V2000
    0.0546   14.5523   -0.5005 C   0  0  0  0  0  0  0  0  0  0  0  0
   -0.0795   14.7006    0.8717 C   0  0  0  0  0  0  0  0  0  0  0  0
   -2.3859   14.8604    0.7668 C   0  0  0  0  0  0  0  0  0  0  0  0
   -1.1167   14.5719   -1.2273 C   0  0  0  0  0  0  0  0  0  0  0  0
   -2.3449   14.7262   -0.5992 C   0  0  0  0  0  0  0  0  0  0  0  0
   -1.3299   14.4184   -2.6943 C   0  0  0  0  0  0  0  0  0  0  0  0
   -3.4375   14.6838   -1.6055 C   0  0  0  0  0  0  0  0  0  0  0  0
   -1.2645   14.8545    1.5245 N   0  0  0  0  0  0  0  0  0  0  0  0
   -2.7601   14.7252   -2.9211 N   0  0  0  0  0  0  0  0  0  0  0  0
    1.0227   14.4277   -0.9680 H   0  0  0  0  0  0  0  0  0  0  0  0
    0.7954   14.6985    1.5146 H   0  0  0  0  0  0  0  0  0  0  0  0
   -3.3185   14.9757    1.3062 H   0  0  0  0  0  0  0  0  0  0  0  0
   -0.6983   15.1062   -3.2651 H   0  0  0  0  0  0  0  0  0  0  0  0
   -1.1203   13.3892   -3.0037 H   0  0  0  0  0  0  0  0  0  0  0  0
   -4.0049   13.7525   -1.5135 H   0  0  0  0  0  0  0  0  0  0  0  0
   -4.1158   15.5363   -1.4998 H   0  0  0  0  0  0  0  0  0  0  0  0
   -2.8235   15.6805   -3.2768 H   0  0  0  0  0  0  0  0  0  0  0  0
  1  2  1  0  0  0  0
  1  4  2  0  0  0  0
  2  8  2  0  0  0  0
  3  5  2  0  0  0  0
  3  8  1  0  0  0  0
  4  5  1  0  0  0  0
  4  6  1  0  0  0  0
  5  7  1  0  0  0  0
  6  9  1  0  0  0  0
  7  9  1  0  0  0  0
  1 10  1  0  0  0  0
  2 11  1  0  0  0  0
  3 12  1  0  0  0  0
  6 13  1  0  0  0  0
  6 14  1  0  0  0  0
  7 15  1  0  0  0  0
  7 16  1  0  0  0  0
  9 17  1  0  0  0  0
M  END
> <HYBRID receptor title>
5S18(A) > WOY(A-201)

> <HYBRID receptor filename>
data/docking/5s18.oedu

> <HYBRID Chemgauss4 score>
-4.994769

> <HYBRID receptor title>
5S18(A) > WOY(A-201)

> <HYBRID receptor filename>
data/docking/5s18.oedu

> <Dock Type>
Hybrid

$$$$
MOL0138
  -OEChem-07032400353D

 20 21  0     0  0  0  0  0  0999 V2000
    0.6767   14.8967   -0.1393 C   0  0  0  0  0  0  0  0  0  0  0  0
   -0.3388   14.7418   -1.0756 C   0  0  0  0  0  0  0  0  0  0  0  0
    0.3189   15.0253    1.1909 C   0  0  0  0  0  0  0  0  0  0  0  0
   -1.6710   14.7113   -0.6598 C   0  0  0  0  0  0  0  0  0  0  0  0
   -1.9316   14.8656    0.7045 C   0  0  0  0  0  0  0  0  0  0  0  0
   -2.7907   14.5910   -1.6586 C   0  0  0  0  0  0  0  0  0  0  0  0
   -3.3508   14.8099    1.2064 C   0  0  0  0  0  0  0  0  0  0  0  0
   -4.3759   15.0502    0.0971 C   0  0  0  0  0  0  0  0  0  0  0  0
   -0.9572   15.0113    1.6359 N   0  0  0  0  0  0  0  0  0  0  0  0
   -4.0734   14.2050   -1.0578 N   0  0  0  0  0  0  0  0  0  0  0  0
    1.7170   14.9201   -0.4431 H   0  0  0  0  0  0  0  0  0  0  0  0
   -0.0879   14.6484   -2.1287 H   0  0  0  0  0  0  0  0  0  0  0  0
    1.0741   15.1478    1.9603 H   0  0  0  0  0  0  0  0  0  0  0  0
   -2.9023   15.5496   -2.1799 H   0  0  0  0  0  0  0  0  0  0  0  0
   -2.5293   13.8336   -2.4061 H   0  0  0  0  0  0  0  0  0  0  0  0
   -3.5127   13.8197    1.6505 H   0  0  0  0  0  0  0  0  0  0  0  0
   -3.4900   15.5551    1.9977 H   0  0  0  0  0  0  0  0  0  0  0  0
   -5.3763   14.8094    0.4737 H   0  0  0  0  0  0  0  0  0  0  0  0
   -4.3900   16.1070   -0.1987 H   0  0  0  0  0  0  0  0  0  0  0  0
   -4.8107   14.3022   -1.7552 H   0  0  0  0  0  0  0  0  0  0  0  0
  1  2  2  0  0  0  0
  1  3  1  0  0  0  0
  2  4  1  0  0  0  0
  3  9  2  0  0  0  0
  4  5  2  0  0  0  0
  4  6  1  0  0  0  0
  5  7  1  0  0  0  0
  5  9  1  0  0  0  0
  6 10  1  0  0  0  0
  7  8  1  0  0  0  0
  8 10  1  0  0  0  0
  1 11  1  0  0  0  0
  2 12  1  0  0  0  0
  3 13  1  0  0  0  0
  6 14  1  0  0  0  0
  6 15  1  0  0  0  0
  7 16  1  0  0  0  0
  7 17  1  0  0  0  0
  8 18  1  0  0  0  0
  8 19  1  0  0  0  0
 10 20  1  0  0  0  0
M  END
> <HYBRID receptor title>
5S18(A) > WOY(A-201)

> <HYBRID receptor filename>
data/docking/5s18.oedu

> <HYBRID Chemgauss4 score>
-4.975741

> <HYBRID receptor title>
5S18(A) > WOY(A-201)

> <HYBRID receptor filename>
data/docking/5s18.oedu

> <Dock Type>
Hybrid

$$$$
MOL0009
  -OEChem-07032400353D

 18 19  0     0  0  0  0  0  0999 V2000
   -3.3410   14.8267   -1.5048 C   0  0  0  0  0  0  0  0  0  0  0  0
   -2.6739   15.3510   -0.3866 C   0  0  0  0  0  0  0  0  0  0  0  0
   -4.6683   14.4066   -1.4081 C   0  0  0  0  0  0  0  0  0  0  0  0
   -3.3238   15.4566    0.8463 C   0  0  0  0  0  0  0  0  0  0  0  0
   -5.2950   14.5107   -0.1789 C   0  0  0  0  0  0  0  0  0  0  0  0
   -4.6310   15.0128    0.9422 C   0  0  0  0  0  0  0  0  0  0  0  0
   -6.7071   14.1823    0.1850 C   0  0  0  0  0  0  0  0  0  0  0  0
   -6.6802   14.3530    1.7193 C   0  0  0  0  0  0  0  0  0  0  0  0
   -5.4648   15.0824    2.0548 N   0  0  0  0  0  0  0  0  0  0  0  0
   -2.8211   14.7577   -2.4565 H   0  0  0  0  0  0  0  0  0  0  0  0
   -1.6441   15.6842   -0.4834 H   0  0  0  0  0  0  0  0  0  0  0  0
   -5.1904   14.0179   -2.2753 H   0  0  0  0  0  0  0  0  0  0  0  0
   -2.8072   15.8755    1.7036 H   0  0  0  0  0  0  0  0  0  0  0  0
   -7.3933   14.8986   -0.2778 H   0  0  0  0  0  0  0  0  0  0  0  0
   -6.9747   13.1602   -0.0979 H   0  0  0  0  0  0  0  0  0  0  0  0
   -7.5703   14.8810    2.0765 H   0  0  0  0  0  0  0  0  0  0  0  0
   -6.6573   13.3699    2.2052 H   0  0  0  0  0  0  0  0  0  0  0  0
   -5.1046   15.1616    2.9952 H   0  0  0  0  0  0  0  0  0  0  0  0
  1  2  1  0  0  0  0
  1  3  2  0  0  0  0
  2  4  2  0  0  0  0
  3  5  1  0  0  0  0
  4  6  1  0  0  0  0
  5  6  2  0  0  0  0
  5  7  1  0  0  0  0
  6  9  1  0  0  0  0
  7  8  1  0  0  0  0
  8  9  1  0  0  0  0
  1 10  1  0  0  0  0
  2 11  1  0  0  0  0
  3 12  1  0  0  0  0
  4 13  1  0  0  0  0
  7 14  1  0  0  0  0
  7 15  1  0  0  0  0
  8 16  1  0  0  0  0
  8 17  1  0  0  0  0
  9 18  1  0  0  0  0
M  END
> <HYBRID receptor title>
5S18(A) > WOY(A-201)

> <HYBRID receptor filename>
data/docking/5s18.oedu

> <HYBRID Chemgauss4 score>
-4.924617

> <HYBRID receptor title>
5S18(A) > WOY(A-201)

> <HYBRID receptor filename>
data/docking/5s18.oedu

> <Dock Type>
Hybrid

$$$$
MOL0144
  -OEChem-07032400353D

 20 21  0     0  0  0  0  0  0999 V2000
   -4.2915   15.1893    0.4901 C   0  0  0  0  0  0  0  0  0  0  0  0
   -3.6093   14.9439   -0.6968 C   0  0  0  0  0  0  0  0  0  0  0  0
   -3.5583   15.2321    1.6605 C   0  0  0  0  0  0  0  0  0  0  0  0
   -2.2268   14.7400   -0.6904 C   0  0  0  0  0  0  0  0  0  0  0  0
   -1.5779   14.8241    0.5469 C   0  0  0  0  0  0  0  0  0  0  0  0
   -0.0878   14.6167    0.6255 C   0  0  0  0  0  0  0  0  0  0  0  0
    0.5867   14.9159   -0.7116 C   0  0  0  0  0  0  0  0  0  0  0  0
   -0.1246   14.1826   -1.8441 C   0  0  0  0  0  0  0  0  0  0  0  0
   -2.2212   15.0541    1.7193 N   0  0  0  0  0  0  0  0  0  0  0  0
   -1.5350   14.5221   -1.8708 N   0  0  0  0  0  0  0  0  0  0  0  0
   -5.3644   15.3432    0.4951 H   0  0  0  0  0  0  0  0  0  0  0  0
   -4.1660   14.9097   -1.6304 H   0  0  0  0  0  0  0  0  0  0  0  0
   -4.0420   15.4180    2.6137 H   0  0  0  0  0  0  0  0  0  0  0  0
    0.3390   15.2595    1.4037 H   0  0  0  0  0  0  0  0  0  0  0  0
    0.0995   13.5752    0.9130 H   0  0  0  0  0  0  0  0  0  0  0  0
    0.5699   15.9960   -0.9072 H   0  0  0  0  0  0  0  0  0  0  0  0
    1.6395   14.6150   -0.6716 H   0  0  0  0  0  0  0  0  0  0  0  0
    0.3298   14.4453   -2.8052 H   0  0  0  0  0  0  0  0  0  0  0  0
   -0.0165   13.0990   -1.7168 H   0  0  0  0  0  0  0  0  0  0  0  0
   -2.0554   14.3942   -2.7305 H   0  0  0  0  0  0  0  0  0  0  0  0
  1  2  2  0  0  0  0
  1  3  1  0  0  0  0
  2  4  1  0  0  0  0
  3  9  2  0  0  0  0
  4  5  2  0  0  0  0
  4 10  1  0  0  0  0
  5  6  1  0  0  0  0
  5  9  1  0  0  0  0
  6  7  1  0  0  0  0
  7  8  1  0  0  0  0
  8 10  1  0  0  0  0
  1 11  1  0  0  0  0
  2 12  1  0  0  0  0
  3 13  1  0  0  0  0
  6 14  1  0  0  0  0
  6 15  1  0  0  0  0
  7 16  1  0  0  0  0
  7 17  1  0  0  0  0
  8 18  1  0  0  0  0
  8 19  1  0  0  0  0
 10 20  1  0  0  0  0
M  END
> <HYBRID receptor title>
5S18(A) > WOY(A-201)

> <HYBRID receptor filename>
data/docking/5s18.oedu

> <HYBRID Chemgauss4 score>
-4.893125

> <HYBRID receptor title>
5S18(A) > WOY(A-201)

> <HYBRID receptor filename>
data/docking/5s18.oedu

> <Dock Type>
Hybrid

$$$$
MOL0097
  -OEChem-07032400353D

 17 18  0     0  0  0  0  0  0999 V2000
   -3.2002   15.2627    0.4479 C   0  0  0  0  0  0  0  0  0  0  0  0
   -2.6493   14.9752   -0.7999 C   0  0  0  0  0  0  0  0  0  0  0  0
   -4.5225   14.9386    0.6643 C   0  0  0  0  0  0  0  0  0  0  0  0
   -5.2267   14.3076   -0.3505 C   0  0  0  0  0  0  0  0  0  0  0  0
   -3.4508   14.3561   -1.7587 C   0  0  0  0  0  0  0  0  0  0  0  0
   -6.6055   13.9702    0.1385 C   0  0  0  0  0  0  0  0  0  0  0  0
   -6.6406   14.7185    1.4893 C   0  0  0  0  0  0  0  0  0  0  0  0
   -4.7432   14.0010   -1.5653 N   0  0  0  0  0  0  0  0  0  0  0  0
   -5.2662   15.0683    1.8276 N   0  0  0  0  0  0  0  0  0  0  0  0
   -2.8272   13.9731   -3.3120 Cl  0  0  0  0  0  0  0  0  0  0  0  0
   -2.5991   15.7298    1.2206 H   0  0  0  0  0  0  0  0  0  0  0  0
   -1.6137   15.2269   -1.0062 H   0  0  0  0  0  0  0  0  0  0  0  0
   -7.3771   14.3315   -0.5466 H   0  0  0  0  0  0  0  0  0  0  0  0
   -6.6964   12.8890    0.2815 H   0  0  0  0  0  0  0  0  0  0  0  0
   -7.2341   15.6360    1.3934 H   0  0  0  0  0  0  0  0  0  0  0  0
   -7.0975   14.1050    2.2725 H   0  0  0  0  0  0  0  0  0  0  0  0
   -5.0213   15.7200    2.5593 H   0  0  0  0  0  0  0  0  0  0  0  0
  1  2  2  0  0  0  0
  1  3  1  0  0  0  0
  2  5  1  0  0  0  0
  3  4  2  0  0  0  0
  3  9  1  0  0  0  0
  4  6  1  0  0  0  0
  4  8  1  0  0  0  0
  5  8  2  0  0  0  0
  5 10  1  0  0  0  0
  6  7  1  0  0  0  0
  7  9  1  0  0  0  0
  1 11  1  0  0  0  0
  2 12  1  0  0  0  0
  6 13  1  0  0  0  0
  6 14  1  0  0  0  0
  7 15  1  0  0  0  0
  7 16  1  0  0  0  0
  9 17  1  0  0  0  0
M  END
> <HYBRID receptor title>
5S18(A) > WOY(A-201)

> <HYBRID receptor filename>
data/docking/5s18.oedu

> <HYBRID Chemgauss4 score>
-4.824788

> <HYBRID receptor title>
5S18(A) > WOY(A-201)

> <HYBRID receptor filename>
data/docking/5s18.oedu

> <Dock Type>
Hybrid

$$$$
MOL0068
  -OEChem-07032400353D

 25 26  0     1  0  0  0  0  0999 V2000
   -1.2984   14.4345   -1.2840 C   0  0  0  0  0  0  0  0  0  0  0  0
   -0.3570   14.5337    0.7757 C   0  0  0  0  0  0  0  0  0  0  0  0
   -2.5206   14.8727   -0.7930 C   0  0  0  0  0  0  0  0  0  0  0  0
   -2.5574   15.1361    0.5711 C   0  0  0  0  0  0  0  0  0  0  0  0
   -3.7068   15.0561   -1.6889 C   0  0  0  0  0  0  0  0  0  0  0  0
   -3.8129   15.6360    1.2309 C   0  0  0  0  0  0  0  0  0  0  0  0
   -4.9074   14.1884   -1.2933 C   0  0  0  0  0  0  0  0  0  0  0  0
   -4.9897   14.6617    1.1184 C   0  0  0  0  0  0  0  0  0  0  0  0
   -6.9696   14.0154   -0.0757 C   0  0  0  0  0  0  0  0  0  0  0  0
   -0.1977   14.2527   -0.5269 N   0  0  0  0  0  0  0  0  0  0  0  0
   -1.4803   14.9694    1.3763 N   0  0  0  0  0  0  0  0  0  0  0  0
   -5.6924   14.7345   -0.1736 N   0  0  2  0  0  0  0  0  0  0  0  0
   -1.1617   14.2104   -2.3375 H   0  0  0  0  0  0  0  0  0  0  0  0
    0.5081   14.3946    1.4119 H   0  0  0  0  0  0  0  0  0  0  0  0
   -4.0254   16.1061   -1.6525 H   0  0  0  0  0  0  0  0  0  0  0  0
   -3.4145   14.8720   -2.7305 H   0  0  0  0  0  0  0  0  0  0  0  0
   -3.6057   15.8879    2.2786 H   0  0  0  0  0  0  0  0  0  0  0  0
   -4.1052   16.5786    0.7492 H   0  0  0  0  0  0  0  0  0  0  0  0
   -5.5462   13.9834   -2.1631 H   0  0  0  0  0  0  0  0  0  0  0  0
   -4.4898   13.2231   -0.9765 H   0  0  0  0  0  0  0  0  0  0  0  0
   -4.5581   13.6559    1.2131 H   0  0  0  0  0  0  0  0  0  0  0  0
   -5.6861   14.7852    1.9589 H   0  0  0  0  0  0  0  0  0  0  0  0
   -7.5688   14.4067    0.7515 H   0  0  0  0  0  0  0  0  0  0  0  0
   -7.5377   14.1263   -1.0036 H   0  0  0  0  0  0  0  0  0  0  0  0
   -6.7911   12.9499    0.0934 H   0  0  0  0  0  0  0  0  0  0  0  0
  1  3  1  0  0  0  0
  1 10  2  0  0  0  0
  2 10  1  0  0  0  0
  2 11  2  0  0  0  0
  3  4  2  0  0  0  0
  3  5  1  0  0  0  0
  4  6  1  0  0  0  0
  4 11  1  0  0  0  0
  5  7  1  0  0  0  0
  6  8  1  0  0  0  0
  7 12  1  0  0  0  0
  8 12  1  0  0  0  0
  9 12  1  0  0  0  0
  1 13  1  0  0  0  0
  2 14  1  0  0  0  0
  5 15  1  0  0  0  0
  5 16  1  0  0  0  0
  6 17  1  0  0  0  0
  6 18  1  0  0  0  0
  7 19  1  0  0  0  0
  7 20  1  0  0  0  0
  8 21  1  0  0  0  0
  8 22  1  0  0  0  0
  9 23  1  0  0  0  0
  9 24  1  0  0  0  0
  9 25  1  0  0  0  0
M  END
> <HYBRID receptor title>
5S18(A) > WOY(A-201)

> <HYBRID receptor filename>
data/docking/5s18.oedu

> <HYBRID Chemgauss4 score>
-4.791777

> <HYBRID receptor title>
5S18(A) > WOY(A-201)

> <HYBRID receptor filename>
data/docking/5s18.oedu

> <Dock Type>
Hybrid

$$$$
MOL0178
  -OEChem-07032400353D

 21 22  0     0  0  0  0  0  0999 V2000
   -2.5835   14.4227   -3.3106 C   0  0  0  0  0  0  0  0  0  0  0  0
   -1.3935   14.3492   -2.5901 C   0  0  0  0  0  0  0  0  0  0  0  0
   -3.7771   14.7322   -2.6583 C   0  0  0  0  0  0  0  0  0  0  0  0
   -1.3927   14.5903   -1.2160 C   0  0  0  0  0  0  0  0  0  0  0  0
   -3.7879   14.9656   -1.2771 C   0  0  0  0  0  0  0  0  0  0  0  0
   -2.5834   14.9127   -0.5525 C   0  0  0  0  0  0  0  0  0  0  0  0
   -5.0755   15.3326   -0.5832 C   0  0  0  0  0  0  0  0  0  0  0  0
   -2.5764   15.1355    0.9399 C   0  0  0  0  0  0  0  0  0  0  0  0
   -4.9801   15.1882    0.9368 C   0  0  0  0  0  0  0  0  0  0  0  0
   -3.7676   15.8287    1.4476 N   0  0  0  0  0  0  0  0  0  0  0  0
   -2.5827   14.2395   -4.3817 H   0  0  0  0  0  0  0  0  0  0  0  0
   -0.4653   14.1041   -3.0974 H   0  0  0  0  0  0  0  0  0  0  0  0
   -4.6979   14.7920   -3.2322 H   0  0  0  0  0  0  0  0  0  0  0  0
   -0.4578   14.5238   -0.6650 H   0  0  0  0  0  0  0  0  0  0  0  0
   -5.3463   16.3667   -0.8240 H   0  0  0  0  0  0  0  0  0  0  0  0
   -5.8683   14.6789   -0.9660 H   0  0  0  0  0  0  0  0  0  0  0  0
   -2.5054   14.1687    1.4555 H   0  0  0  0  0  0  0  0  0  0  0  0
   -1.6794   15.7096    1.2096 H   0  0  0  0  0  0  0  0  0  0  0  0
   -5.8666   15.6193    1.4252 H   0  0  0  0  0  0  0  0  0  0  0  0
   -4.9688   14.1230    1.2037 H   0  0  0  0  0  0  0  0  0  0  0  0
   -3.7704   15.7912    2.4654 H   0  0  0  0  0  0  0  0  0  0  0  0
  1  2  1  0  0  0  0
  1  3  2  0  0  0  0
  2  4  2  0  0  0  0
  3  5  1  0  0  0  0
  4  6  1  0  0  0  0
  5  6  2  0  0  0  0
  5  7  1  0  0  0  0
  6  8  1  0  0  0  0
  7  9  1  0  0  0  0
  8 10  1  0  0  0  0
  9 10  1  0  0  0  0
  1 11  1  0  0  0  0
  2 12  1  0  0  0  0
  3 13  1  0  0  0  0
  4 14  1  0  0  0  0
  7 15  1  0  0  0  0
  7 16  1  0  0  0  0
  8 17  1  0  0  0  0
  8 18  1  0  0  0  0
  9 19  1  0  0  0  0
  9 20  1  0  0  0  0
 10 21  1  0  0  0  0
M  END
> <HYBRID receptor title>
5S18(A) > WOY(A-201)

> <HYBRID receptor filename>
data/docking/5s18.oedu

> <HYBRID Chemgauss4 score>
-4.733303

> <HYBRID receptor title>
5S18(A) > WOY(A-201)

> <HYBRID receptor filename>
data/docking/5s18.oedu

> <Dock Type>
Hybrid

$$$$
MOL0103
  -OEChem-07032400353D

 26 28  0     0  0  0  0  0  0999 V2000
    2.1936   14.8511   -3.0381 C   0  0  0  0  0  0  0  0  0  0  0  0
    1.1778   15.5452   -3.6954 C   0  0  0  0  0  0  0  0  0  0  0  0
    1.9174   14.1675   -1.8541 C   0  0  0  0  0  0  0  0  0  0  0  0
   -0.1140   15.5556   -3.1689 C   0  0  0  0  0  0  0  0  0  0  0  0
    0.6256   14.1780   -1.3277 C   0  0  0  0  0  0  0  0  0  0  0  0
   -3.9761   14.9979   -1.8110 C   0  0  0  0  0  0  0  0  0  0  0  0
   -0.3903   14.8721   -1.9848 C   0  0  0  0  0  0  0  0  0  0  0  0
   -4.1904   14.8997   -0.4616 C   0  0  0  0  0  0  0  0  0  0  0  0
   -3.0842   14.7979    0.3651 C   0  0  0  0  0  0  0  0  0  0  0  0
   -1.7239   14.8831   -1.4408 C   0  0  0  0  0  0  0  0  0  0  0  0
   -5.4498   14.9106    0.3294 C   0  0  0  0  0  0  0  0  0  0  0  0
   -4.9264   14.6152    1.7522 C   0  0  0  0  0  0  0  0  0  0  0  0
   -2.7341   14.9889   -2.3369 N   0  0  0  0  0  0  0  0  0  0  0  0
   -1.8233   14.7875   -0.0974 N   0  0  0  0  0  0  0  0  0  0  0  0
   -3.4776   14.7169    1.7064 N   0  0  0  0  0  0  0  0  0  0  0  0
    3.1995   14.8433   -3.4475 H   0  0  0  0  0  0  0  0  0  0  0  0
    1.3927   16.0768   -4.6177 H   0  0  0  0  0  0  0  0  0  0  0  0
    2.7082   13.6273   -1.3422 H   0  0  0  0  0  0  0  0  0  0  0  0
   -0.8947   16.1021   -3.6929 H   0  0  0  0  0  0  0  0  0  0  0  0
    0.4259   13.6398   -0.4041 H   0  0  0  0  0  0  0  0  0  0  0  0
   -4.7901   15.0889   -2.5198 H   0  0  0  0  0  0  0  0  0  0  0  0
   -5.9237   15.8960    0.2825 H   0  0  0  0  0  0  0  0  0  0  0  0
   -6.1471   14.1373   -0.0055 H   0  0  0  0  0  0  0  0  0  0  0  0
   -5.3478   15.3149    2.4814 H   0  0  0  0  0  0  0  0  0  0  0  0
   -5.2118   13.6014    2.0565 H   0  0  0  0  0  0  0  0  0  0  0  0
   -2.8475   14.5926    2.4832 H   0  0  0  0  0  0  0  0  0  0  0  0
  1  2  1  0  0  0  0
  1  3  2  0  0  0  0
  2  4  2  0  0  0  0
  3  5  1  0  0  0  0
  4  7  1  0  0  0  0
  5  7  2  0  0  0  0
  6  8  1  0  0  0  0
  6 13  2  0  0  0  0
  7 10  1  0  0  0  0
  8  9  2  0  0  0  0
  8 11  1  0  0  0  0
  9 14  1  0  0  0  0
  9 15  1  0  0  0  0
 10 13  1  0  0  0  0
 10 14  2  0  0  0  0
 11 12  1  0  0  0  0
 12 15  1  0  0  0  0
  1 16  1  0  0  0  0
  2 17  1  0  0  0  0
  3 18  1  0  0  0  0
  4 19  1  0  0  0  0
  5 20  1  0  0  0  0
  6 21  1  0  0  0  0
 11 22  1  0  0  0  0
 11 23  1  0  0  0  0
 12 24  1  0  0  0  0
 12 25  1  0  0  0  0
 15 26  1  0  0  0  0
M  END
> <HYBRID receptor title>
5S18(A) > WOY(A-201)

> <HYBRID receptor filename>
data/docking/5s18.oedu

> <HYBRID Chemgauss4 score>
-4.692827

> <HYBRID receptor title>
5S18(A) > WOY(A-201)

> <HYBRID receptor filename>
data/docking/5s18.oedu

> <Dock Type>
Hybrid

$$$$
MOL0045
  -OEChem-07032400353D

 19 20  0     0  0  0  0  0  0999 V2000
    0.3259   14.5430   -0.3170 C   0  0  0  0  0  0  0  0  0  0  0  0
    0.1934   14.9481    0.9913 C   0  0  0  0  0  0  0  0  0  0  0  0
   -1.9194   14.8776   -0.6532 C   0  0  0  0  0  0  0  0  0  0  0  0
   -2.0510   15.2993    0.6641 C   0  0  0  0  0  0  0  0  0  0  0  0
   -3.1011   14.8936   -1.5814 C   0  0  0  0  0  0  0  0  0  0  0  0
   -3.3981   15.6679    1.2233 C   0  0  0  0  0  0  0  0  0  0  0  0
   -4.4323   14.9578   -0.8313 C   0  0  0  0  0  0  0  0  0  0  0  0
   -0.7235   14.5035   -1.1603 N   0  0  0  0  0  0  0  0  0  0  0  0
   -0.9929   15.3278    1.5041 N   0  0  0  0  0  0  0  0  0  0  0  0
   -4.3876   16.0020    0.1929 N   0  0  0  0  0  0  0  0  0  0  0  0
    1.2801   14.2381   -0.7286 H   0  0  0  0  0  0  0  0  0  0  0  0
    1.0372   14.9787    1.6695 H   0  0  0  0  0  0  0  0  0  0  0  0
   -3.0047   15.7692   -2.2355 H   0  0  0  0  0  0  0  0  0  0  0  0
   -3.0825   14.0014   -2.2174 H   0  0  0  0  0  0  0  0  0  0  0  0
   -3.7633   14.8308    1.8307 H   0  0  0  0  0  0  0  0  0  0  0  0
   -3.2852   16.5323    1.8870 H   0  0  0  0  0  0  0  0  0  0  0  0
   -5.2360   15.1783   -1.5424 H   0  0  0  0  0  0  0  0  0  0  0  0
   -4.6675   13.9886   -0.3732 H   0  0  0  0  0  0  0  0  0  0  0  0
   -5.3048   16.0920    0.6290 H   0  0  0  0  0  0  0  0  0  0  0  0
  1  2  1  0  0  0  0
  1  8  2  0  0  0  0
  2  9  2  0  0  0  0
  3  4  2  0  0  0  0
  3  5  1  0  0  0  0
  3  8  1  0  0  0  0
  4  6  1  0  0  0  0
  4  9  1  0  0  0  0
  5  7  1  0  0  0  0
  6 10  1  0  0  0  0
  7 10  1  0  0  0  0
  1 11  1  0  0  0  0
  2 12  1  0  0  0  0
  5 13  1  0  0  0  0
  5 14  1  0  0  0  0
  6 15  1  0  0  0  0
  6 16  1  0  0  0  0
  7 17  1  0  0  0  0
  7 18  1  0  0  0  0
 10 19  1  0  0  0  0
M  END
> <HYBRID receptor title>
5S18(A) > WOY(A-201)

> <HYBRID receptor filename>
data/docking/5s18.oedu

> <HYBRID Chemgauss4 score>
-4.675371

> <HYBRID receptor title>
5S18(A) > WOY(A-201)

> <HYBRID receptor filename>
data/docking/5s18.oedu

> <Dock Type>
Hybrid

$$$$
MOL0019
  -OEChem-07032400353D

 17 18  0     0  0  0  0  0  0999 V2000
   -6.8500   13.9886   -0.1732 C   0  0  0  0  0  0  0  0  0  0  0  0
   -6.1669   14.6463    0.8486 C   0  0  0  0  0  0  0  0  0  0  0  0
   -6.1294   13.5428   -1.2809 C   0  0  0  0  0  0  0  0  0  0  0  0
   -4.8034   14.8042    0.7215 C   0  0  0  0  0  0  0  0  0  0  0  0
   -4.1851   14.3399   -0.4301 C   0  0  0  0  0  0  0  0  0  0  0  0
   -2.7283   14.7008   -0.3906 C   0  0  0  0  0  0  0  0  0  0  0  0
   -2.5831   15.2212    1.0564 C   0  0  0  0  0  0  0  0  0  0  0  0
   -4.7955   13.7082   -1.4460 N   0  0  0  0  0  0  0  0  0  0  0  0
   -3.9267   15.4696    1.5653 N   0  0  0  0  0  0  0  0  0  0  0  0
   -7.9215   13.8321   -0.1110 H   0  0  0  0  0  0  0  0  0  0  0  0
   -6.7010   15.0186    1.7162 H   0  0  0  0  0  0  0  0  0  0  0  0
   -6.6330   13.0289   -2.0937 H   0  0  0  0  0  0  0  0  0  0  0  0
   -2.0916   13.8318   -0.5762 H   0  0  0  0  0  0  0  0  0  0  0  0
   -2.5199   15.4909   -1.1185 H   0  0  0  0  0  0  0  0  0  0  0  0
   -2.0958   14.4619    1.6803 H   0  0  0  0  0  0  0  0  0  0  0  0
   -1.9712   16.1284    1.0944 H   0  0  0  0  0  0  0  0  0  0  0  0
   -4.1316   15.6387    2.5398 H   0  0  0  0  0  0  0  0  0  0  0  0
  1  2  2  0  0  0  0
  1  3  1  0  0  0  0
  2  4  1  0  0  0  0
  3  8  2  0  0  0  0
  4  5  2  0  0  0  0
  4  9  1  0  0  0  0
  5  6  1  0  0  0  0
  5  8  1  0  0  0  0
  6  7  1  0  0  0  0
  7  9  1  0  0  0  0
  1 10  1  0  0  0  0
  2 11  1  0  0  0  0
  3 12  1  0  0  0  0
  6 13  1  0  0  0  0
  6 14  1  0  0  0  0
  7 15  1  0  0  0  0
  7 16  1  0  0  0  0
  9 17  1  0  0  0  0
M  END
> <HYBRID receptor title>
5S18(A) > WOY(A-201)

> <HYBRID receptor filename>
data/docking/5s18.oedu

> <HYBRID Chemgauss4 score>
-4.661966

> <HYBRID receptor title>
5S18(A) > WOY(A-201)

> <HYBRID receptor filename>
data/docking/5s18.oedu

> <Dock Type>
Hybrid

$$$$
MOL0139
  -OEChem-07032400353D

 17 18  0     0  0  0  0  0  0999 V2000
   -0.9581   14.5868   -1.0062 C   0  0  0  0  0  0  0  0  0  0  0  0
    0.1346   14.4511   -0.1514 C   0  0  0  0  0  0  0  0  0  0  0  0
   -2.1891   14.8589   -0.4486 C   0  0  0  0  0  0  0  0  0  0  0  0
   -2.2741   15.0245    0.9260 C   0  0  0  0  0  0  0  0  0  0  0  0
   -0.0631   14.6178    1.2190 C   0  0  0  0  0  0  0  0  0  0  0  0
   -3.6798   15.4021    1.2940 C   0  0  0  0  0  0  0  0  0  0  0  0
   -4.4133   15.1881   -0.0484 C   0  0  0  0  0  0  0  0  0  0  0  0
   -1.2540   14.9128    1.7924 N   0  0  0  0  0  0  0  0  0  0  0  0
   -3.3962   15.0955   -1.0890 N   0  0  0  0  0  0  0  0  0  0  0  0
    0.9955   14.4877    2.0341 F   0  0  0  0  0  0  0  0  0  0  0  0
   -0.8349   14.4781   -2.0783 H   0  0  0  0  0  0  0  0  0  0  0  0
    1.1199   14.2267   -0.5449 H   0  0  0  0  0  0  0  0  0  0  0  0
   -4.0780   14.7577    2.0823 H   0  0  0  0  0  0  0  0  0  0  0  0
   -3.7158   16.4515    1.6022 H   0  0  0  0  0  0  0  0  0  0  0  0
   -4.9850   14.2526   -0.0179 H   0  0  0  0  0  0  0  0  0  0  0  0
   -5.1156   16.0029   -0.2527 H   0  0  0  0  0  0  0  0  0  0  0  0
   -3.5867   14.7717   -2.0265 H   0  0  0  0  0  0  0  0  0  0  0  0
  1  2  2  0  0  0  0
  1  3  1  0  0  0  0
  2  5  1  0  0  0  0
  3  4  2  0  0  0  0
  3  9  1  0  0  0  0
  4  6  1  0  0  0  0
  4  8  1  0  0  0  0
  5  8  2  0  0  0  0
  5 10  1  0  0  0  0
  6  7  1  0  0  0  0
  7  9  1  0  0  0  0
  1 11  1  0  0  0  0
  2 12  1  0  0  0  0
  6 13  1  0  0  0  0
  6 14  1  0  0  0  0
  7 15  1  0  0  0  0
  7 16  1  0  0  0  0
  9 17  1  0  0  0  0
M  END
> <HYBRID receptor title>
5S18(A) > WOY(A-201)

> <HYBRID receptor filename>
data/docking/5s18.oedu

> <HYBRID Chemgauss4 score>
-4.640020

> <HYBRID receptor title>
5S18(A) > WOY(A-201)

> <HYBRID receptor filename>
data/docking/5s18.oedu

> <Dock Type>
Hybrid

$$$$
MOL0155
  -OEChem-07032400353D

 18 19  0     0  0  0  0  0  0999 V2000
   -0.4809   15.1576    0.8749 C   0  0  0  0  0  0  0  0  0  0  0  0
   -2.2941   14.6195   -0.6869 C   0  0  0  0  0  0  0  0  0  0  0  0
   -3.6548   14.4315   -0.9015 C   0  0  0  0  0  0  0  0  0  0  0  0
   -1.8650   14.9545    0.5950 C   0  0  0  0  0  0  0  0  0  0  0  0
   -4.5060   14.5944    0.1744 C   0  0  0  0  0  0  0  0  0  0  0  0
   -3.9955   14.9279    1.4256 C   0  0  0  0  0  0  0  0  0  0  0  0
   -5.9876   14.4325    0.2407 C   0  0  0  0  0  0  0  0  0  0  0  0
   -6.2956   14.9274    1.6697 C   0  0  0  0  0  0  0  0  0  0  0  0
    0.6451   15.3227    1.1026 N   0  0  0  0  0  0  0  0  0  0  0  0
   -2.6840   15.1129    1.6641 N   0  0  0  0  0  0  0  0  0  0  0  0
   -5.0272   15.0319    2.3683 N   0  0  0  0  0  0  0  0  0  0  0  0
   -1.5933   14.5032   -1.5080 H   0  0  0  0  0  0  0  0  0  0  0  0
   -4.0309   14.1637   -1.8826 H   0  0  0  0  0  0  0  0  0  0  0  0
   -6.4975   15.0426   -0.5103 H   0  0  0  0  0  0  0  0  0  0  0  0
   -6.2604   13.3790    0.1230 H   0  0  0  0  0  0  0  0  0  0  0  0
   -6.7725   15.9140    1.6320 H   0  0  0  0  0  0  0  0  0  0  0  0
   -6.9781   14.2456    2.1872 H   0  0  0  0  0  0  0  0  0  0  0  0
   -4.8985   15.3146    3.3273 H   0  0  0  0  0  0  0  0  0  0  0  0
  1  4  1  0  0  0  0
  1  9  3  0  0  0  0
  2  3  2  0  0  0  0
  2  4  1  0  0  0  0
  3  5  1  0  0  0  0
  4 10  2  0  0  0  0
  5  6  2  0  0  0  0
  5  7  1  0  0  0  0
  6 10  1  0  0  0  0
  6 11  1  0  0  0  0
  7  8  1  0  0  0  0
  8 11  1  0  0  0  0
  2 12  1  0  0  0  0
  3 13  1  0  0  0  0
  7 14  1  0  0  0  0
  7 15  1  0  0  0  0
  8 16  1  0  0  0  0
  8 17  1  0  0  0  0
 11 18  1  0  0  0  0
M  END
> <HYBRID receptor title>
5S18(A) > WOY(A-201)

> <HYBRID receptor filename>
data/docking/5s18.oedu

> <HYBRID Chemgauss4 score>
-4.607320

> <HYBRID receptor title>
5S18(A) > WOY(A-201)

> <HYBRID receptor filename>
data/docking/5s18.oedu

> <Dock Type>
Hybrid

$$$$
