MOL0205
     RDKit          3D

 16 18  0  0  0  0  0  0  0  0999 V2000
   -0.9636   12.9038   -4.1414 C   0  0  0  0  0  0  0  0  0  0  0  0
   -1.1325   13.1684   -2.7823 C   0  0  0  0  0  0  0  0  0  0  0  0
   -0.1616   13.7385   -4.9195 C   0  0  0  0  0  0  0  0  0  0  0  0
    0.3028   15.1020   -2.9794 C   0  0  0  0  0  0  0  0  0  0  0  0
    0.2924   14.8055    1.2576 C   0  0  0  0  0  0  0  0  0  0  0  0
   -0.4992   14.2672   -2.2013 C   0  0  0  0  0  0  0  0  0  0  0  0
   -1.9002   14.7869   -0.2374 C   0  0  0  0  0  0  0  0  0  0  0  0
    0.4717   14.8374   -4.3384 C   0  0  0  0  0  0  0  0  0  0  0  0
   -0.6741   14.5401   -0.7962 C   0  0  0  0  0  0  0  0  0  0  0  0
   -1.9528   15.0491    1.1213 C   0  0  0  0  0  0  0  0  0  0  0  0
   -3.2541   14.8587   -0.8486 C   0  0  0  0  0  0  0  0  0  0  0  0
   -4.1500   15.0271    0.3982 C   0  0  0  0  0  0  0  0  0  0  0  0
    0.4564   14.5400   -0.0604 N   0  0  0  0  0  0  0  0  0  0  0  0
   -0.8629   15.0672    1.9060 N   0  0  0  0  0  0  0  0  0  0  0  0
   -3.2717   15.2883    1.5259 N   0  0  0  0  0  0  0  0  0  0  0  0
    1.2420   15.6382   -5.0862 F   0  0  0  0  0  0  0  0  0  0  0  0
  1  2  2  0
  1  3  1  0
  2  6  1  0
  3  8  2  0
  4  6  2  0
  4  8  1  0
  5 13  2  0
  5 14  1  0
  6  9  1  0
  7  9  2  0
  7 10  1  0
  7 11  1  0
  8 16  1  0
  9 13  1  0
 10 14  2  0
 10 15  1  0
 11 12  1  0
 12 15  1  0
M  END
$$$$
MOL0123
     RDKit          3D

 17 19  0  0  0  0  0  0  0  0999 V2000
   -0.5667   11.6421   -6.2322 C   0  0  0  0  0  0  0  0  0  0  0  0
   -1.9442   11.7334   -6.0327 C   0  0  0  0  0  0  0  0  0  0  0  0
    0.3115   12.1145   -5.2569 C   0  0  0  0  0  0  0  0  0  0  0  0
   -2.4435   12.2967   -4.8582 C   0  0  0  0  0  0  0  0  0  0  0  0
   -0.1878   12.6778   -4.0824 C   0  0  0  0  0  0  0  0  0  0  0  0
    0.0982   14.5126    1.1450 C   0  0  0  0  0  0  0  0  0  0  0  0
   -2.2174   14.9240   -0.0842 C   0  0  0  0  0  0  0  0  0  0  0  0
   -1.5653   12.7692   -3.8829 C   0  0  0  0  0  0  0  0  0  0  0  0
   -2.0824   15.0997    1.2826 C   0  0  0  0  0  0  0  0  0  0  0  0
   -1.1123   14.5334   -0.7933 C   0  0  0  0  0  0  0  0  0  0  0  0
   -3.6009   15.2394   -0.5298 C   0  0  0  0  0  0  0  0  0  0  0  0
   -4.3205   15.4569    0.8195 C   0  0  0  0  0  0  0  0  0  0  0  0
   -2.1018   13.3751   -2.6198 C   0  0  0  0  0  0  0  0  0  0  0  0
   -0.9255   14.9011    1.9353 N   0  0  0  0  0  0  0  0  0  0  0  0
    0.0764   14.3140   -0.1947 N   0  0  0  0  0  0  0  0  0  0  0  0
   -3.2963   15.5071    1.8490 N   0  0  0  0  0  0  0  0  0  0  0  0
   -1.1810   14.3535   -2.1457 O   0  0  0  0  0  0  0  0  0  0  0  0
  1  2  2  0
  1  3  1  0
  2  4  1  0
  3  5  2  0
  4  8  2  0
  5  8  1  0
  6 14  2  0
  6 15  1  0
  7  9  2  0
  7 10  1  0
  7 11  1  0
  8 13  1  0
  9 14  1  0
  9 16  1  0
 10 15  2  0
 10 17  1  0
 11 12  1  0
 12 16  1  0
 13 17  1  0
M  END
$$$$
MOL0140
     RDKit          3D

 18 20  0  0  0  0  0  0  0  0999 V2000
   -2.2187   10.1736   -4.5933 C   0  0  0  0  0  0  0  0  0  0  0  0
   -2.2119   10.4670   -3.2296 C   0  0  0  0  0  0  0  0  0  0  0  0
   -1.2708   10.7541   -5.4358 C   0  0  0  0  0  0  0  0  0  0  0  0
   -1.2572   11.3404   -2.7085 C   0  0  0  0  0  0  0  0  0  0  0  0
   -0.3161   11.6276   -4.9146 C   0  0  0  0  0  0  0  0  0  0  0  0
    0.2896   14.7512    1.1843 C   0  0  0  0  0  0  0  0  0  0  0  0
   -2.0261   14.8591   -0.1073 C   0  0  0  0  0  0  0  0  0  0  0  0
   -0.3092   11.9210   -3.5510 C   0  0  0  0  0  0  0  0  0  0  0  0
   -1.9574   15.0015    1.2683 C   0  0  0  0  0  0  0  0  0  0  0  0
   -0.8554   14.6644   -0.7915 C   0  0  0  0  0  0  0  0  0  0  0  0
   -3.4281   14.9815   -0.5882 C   0  0  0  0  0  0  0  0  0  0  0  0
   -4.2098   15.0386    0.7427 C   0  0  0  0  0  0  0  0  0  0  0  0
    0.7235   12.8658   -2.9877 C   0  0  0  0  0  0  0  0  0  0  0  0
    0.2659   14.3219   -2.9937 C   0  0  0  0  0  0  0  0  0  0  0  0
   -0.8026   14.9530    1.9524 N   0  0  0  0  0  0  0  0  0  0  0  0
    0.3355   14.6021   -0.1611 N   0  0  0  0  0  0  0  0  0  0  0  0
   -3.2341   15.2020    1.8070 N   0  0  0  0  0  0  0  0  0  0  0  0
   -0.9019   14.5277   -2.1967 N   0  0  0  0  0  0  0  0  0  0  0  0
  1  2  2  0
  1  3  1  0
  2  4  1  0
  3  5  2  0
  4  8  2  0
  5  8  1  0
  6 15  2  0
  6 16  1  0
  7  9  2  0
  7 10  1  0
  7 11  1  0
  8 13  1  0
  9 15  1  0
  9 17  1  0
 10 16  2  0
 10 18  1  0
 11 12  1  0
 12 17  1  0
 13 14  1  0
 14 18  1  0
M  END
$$$$
MOL0161
     RDKit          3D

 17 19  0  0  0  0  0  0  0  0999 V2000
    0.7645   18.0694   -4.8078 C   0  0  0  0  0  0  0  0  0  0  0  0
    1.5784   16.9421   -4.6965 C   0  0  0  0  0  0  0  0  0  0  0  0
   -0.5847   17.9917   -4.4628 C   0  0  0  0  0  0  0  0  0  0  0  0
    1.0433   15.7373   -4.2400 C   0  0  0  0  0  0  0  0  0  0  0  0
   -1.1198   16.7870   -4.0064 C   0  0  0  0  0  0  0  0  0  0  0  0
   -0.4393   14.8518    0.7443 C   0  0  0  0  0  0  0  0  0  0  0  0
   -2.8751   14.9205   -0.3067 C   0  0  0  0  0  0  0  0  0  0  0  0
   -0.3060   15.6596   -3.8950 C   0  0  0  0  0  0  0  0  0  0  0  0
   -2.6687   15.0831    1.0528 C   0  0  0  0  0  0  0  0  0  0  0  0
   -1.7779   14.7265   -1.1037 C   0  0  0  0  0  0  0  0  0  0  0  0
   -4.3199   15.0234   -0.6442 C   0  0  0  0  0  0  0  0  0  0  0  0
   -4.9631   15.0924    0.7583 C   0  0  0  0  0  0  0  0  0  0  0  0
   -0.8824   14.3628   -3.4036 C   0  0  0  0  0  0  0  0  0  0  0  0
   -1.4500   15.0547    1.6166 N   0  0  0  0  0  0  0  0  0  0  0  0
   -0.5287   14.6839   -0.5968 N   0  0  0  0  0  0  0  0  0  0  0  0
   -3.8862   15.2797    1.7157 N   0  0  0  0  0  0  0  0  0  0  0  0
   -1.9655   14.5695   -2.4950 N   0  0  0  0  0  0  0  0  0  0  0  0
  1  2  2  0
  1  3  1  0
  2  4  1  0
  3  5  2  0
  4  8  2  0
  5  8  1  0
  6 14  2  0
  6 15  1  0
  7  9  2  0
  7 10  1  0
  7 11  1  0
  8 13  1  0
  9 14  1  0
  9 16  1  0
 10 15  2  0
 10 17  1  0
 11 12  1  0
 12 16  1  0
 13 17  1  0
M  END
$$$$
MOL0059
     RDKit          3D

 15 17  0  0  0  0  0  0  0  0999 V2000
   -0.7947   14.7795   -4.2914 C   0  0  0  0  0  0  0  0  0  0  0  0
   -0.7056   15.0617   -2.9329 C   0  0  0  0  0  0  0  0  0  0  0  0
   -1.6249   13.7419   -4.6851 C   0  0  0  0  0  0  0  0  0  0  0  0
   -2.2400   13.2926   -2.5171 C   0  0  0  0  0  0  0  0  0  0  0  0
   -0.0719   14.7230    1.2702 C   0  0  0  0  0  0  0  0  0  0  0  0
   -1.4387   14.3089   -2.0223 C   0  0  0  0  0  0  0  0  0  0  0  0
   -2.4627   14.9261    0.1364 C   0  0  0  0  0  0  0  0  0  0  0  0
   -1.3667   14.5764   -0.6072 C   0  0  0  0  0  0  0  0  0  0  0  0
   -2.2787   15.1725    1.4865 C   0  0  0  0  0  0  0  0  0  0  0  0
   -3.8828   15.1300   -0.2556 C   0  0  0  0  0  0  0  0  0  0  0  0
   -4.5542   15.3615    1.1159 C   0  0  0  0  0  0  0  0  0  0  0  0
   -2.3522   12.9889   -3.8296 N   0  0  0  0  0  0  0  0  0  0  0  0
   -0.1403   14.4625   -0.0573 N   0  0  0  0  0  0  0  0  0  0  0  0
   -1.0830   15.0797    2.0912 N   0  0  0  0  0  0  0  0  0  0  0  0
   -3.4906   15.5253    2.0924 N   0  0  0  0  0  0  0  0  0  0  0  0
  1  2  2  0
  1  3  1  0
  2  6  1  0
  3 12  2  0
  4  6  2  0
  4 12  1  0
  5 13  2  0
  5 14  1  0
  6  8  1  0
  7  8  2  0
  7  9  1  0
  7 10  1  0
  8 13  1  0
  9 14  2  0
  9 15  1  0
 10 11  1  0
 11 15  1  0
M  END
$$$$
MOL0113
     RDKit          3D

 16 18  0  0  0  0  0  0  0  0999 V2000
   -3.4275   12.8323   -5.0058 C   0  0  0  0  0  0  0  0  0  0  0  0
   -3.0038   14.1515   -5.1669 C   0  0  0  0  0  0  0  0  0  0  0  0
   -2.9605   12.0769   -3.9302 C   0  0  0  0  0  0  0  0  0  0  0  0
   -2.1137   14.7153   -4.2527 C   0  0  0  0  0  0  0  0  0  0  0  0
   -2.0704   12.6407   -3.0160 C   0  0  0  0  0  0  0  0  0  0  0  0
    0.1479   14.9682    1.1954 C   0  0  0  0  0  0  0  0  0  0  0  0
   -2.0488   14.9765   -0.2935 C   0  0  0  0  0  0  0  0  0  0  0  0
   -1.6467   13.9598   -3.1771 C   0  0  0  0  0  0  0  0  0  0  0  0
   -2.0989   15.2033    1.0715 C   0  0  0  0  0  0  0  0  0  0  0  0
   -0.8231   14.7507   -0.8619 C   0  0  0  0  0  0  0  0  0  0  0  0
   -3.4049   15.0570   -0.8990 C   0  0  0  0  0  0  0  0  0  0  0  0
   -4.2981   15.1883    0.3542 C   0  0  0  0  0  0  0  0  0  0  0  0
   -1.0069   15.2069    1.8535 N   0  0  0  0  0  0  0  0  0  0  0  0
    0.3095   14.7376   -0.1295 N   0  0  0  0  0  0  0  0  0  0  0  0
   -3.4178   15.4250    1.4859 N   0  0  0  0  0  0  0  0  0  0  0  0
   -0.7484   14.5281   -2.2549 N   0  0  0  0  0  0  0  0  0  0  0  0
  1  2  2  0
  1  3  1  0
  2  4  1  0
  3  5  2  0
  4  8  2  0
  5  8  1  0
  6 13  2  0
  6 14  1  0
  7  9  2  0
  7 10  1  0
  7 11  1  0
  8 16  1  0
  9 13  1  0
  9 15  1  0
 10 14  2  0
 10 16  1  0
 11 12  1  0
 12 15  1  0
M  END
$$$$
MOL0202
     RDKit          3D

 16 18  0  0  0  0  0  0  0  0999 V2000
   -0.0824   15.1056   -3.0801 C   0  0  0  0  0  0  0  0  0  0  0  0
    0.0207   14.8246   -4.4379 C   0  0  0  0  0  0  0  0  0  0  0  0
   -1.3435   13.1064   -2.8150 C   0  0  0  0  0  0  0  0  0  0  0  0
    0.1471   14.8419    1.1687 C   0  0  0  0  0  0  0  0  0  0  0  0
   -0.7756   14.2355   -2.2461 C   0  0  0  0  0  0  0  0  0  0  0  0
   -2.1104   14.6605   -0.2145 C   0  0  0  0  0  0  0  0  0  0  0  0
   -0.8992   14.5003   -0.8340 C   0  0  0  0  0  0  0  0  0  0  0  0
   -2.1138   14.9232    1.1451 C   0  0  0  0  0  0  0  0  0  0  0  0
   -0.5824   13.6695   -4.9089 C   0  0  0  0  0  0  0  0  0  0  0  0
   -3.4948   14.6328   -0.7571 C   0  0  0  0  0  0  0  0  0  0  0  0
   -4.3371   14.7410    0.5330 C   0  0  0  0  0  0  0  0  0  0  0  0
   -1.2641   12.8004   -4.1296 N   0  0  0  0  0  0  0  0  0  0  0  0
    0.2637   14.5840   -0.1559 N   0  0  0  0  0  0  0  0  0  0  0  0
   -0.9901   15.0223    1.8742 N   0  0  0  0  0  0  0  0  0  0  0  0
   -3.4245   15.0687    1.6153 N   0  0  0  0  0  0  0  0  0  0  0  0
   -0.5110   13.2458   -6.5700 Cl  0  0  0  0  0  0  0  0  0  0  0  0
  1  2  2  0
  1  5  1  0
  2  9  1  0
  3  5  2  0
  3 12  1  0
  4 13  2  0
  4 14  1  0
  5  7  1  0
  6  7  2  0
  6  8  1  0
  6 10  1  0
  7 13  1  0
  8 14  2  0
  8 15  1  0
  9 12  2  0
  9 16  1  0
 10 11  1  0
 11 15  1  0
M  END
$$$$
MOL0083
     RDKit          3D

 16 18  0  0  0  0  0  0  0  0999 V2000
   -1.2811   13.2033   -2.8785 C   0  0  0  0  0  0  0  0  0  0  0  0
    0.3350   14.9923   -3.0369 C   0  0  0  0  0  0  0  0  0  0  0  0
   -1.1047   12.9248   -4.2338 C   0  0  0  0  0  0  0  0  0  0  0  0
    0.5114   14.7139   -4.3922 C   0  0  0  0  0  0  0  0  0  0  0  0
    0.1948   14.6990    1.1979 C   0  0  0  0  0  0  0  0  0  0  0  0
   -0.5610   14.2371   -2.2801 C   0  0  0  0  0  0  0  0  0  0  0  0
   -1.9531   14.8878   -0.3492 C   0  0  0  0  0  0  0  0  0  0  0  0
   -0.2087   13.6800   -4.9907 C   0  0  0  0  0  0  0  0  0  0  0  0
   -0.7428   14.5257   -0.8790 C   0  0  0  0  0  0  0  0  0  0  0  0
   -2.0133   15.1542    1.0083 C   0  0  0  0  0  0  0  0  0  0  0  0
   -3.2791   15.0875   -0.9925 C   0  0  0  0  0  0  0  0  0  0  0  0
   -4.1847   15.3403    0.2329 C   0  0  0  0  0  0  0  0  0  0  0  0
    0.3645   14.4187   -0.1164 N   0  0  0  0  0  0  0  0  0  0  0  0
   -0.9457   15.0691    1.8189 N   0  0  0  0  0  0  0  0  0  0  0  0
   -3.3128   15.5175    1.3818 N   0  0  0  0  0  0  0  0  0  0  0  0
   -0.0401   13.4124   -6.2922 F   0  0  0  0  0  0  0  0  0  0  0  0
  1  3  2  0
  1  6  1  0
  2  4  1  0
  2  6  2  0
  3  8  1  0
  4  8  2  0
  5 13  2  0
  5 14  1  0
  6  9  1  0
  7  9  2  0
  7 10  1  0
  7 11  1  0
  8 16  1  0
  9 13  1  0
 10 14  2  0
 10 15  1  0
 11 12  1  0
 12 15  1  0
M  END
$$$$
MOL0180
     RDKit          3D

 12 13  0  0  1  0  0  0  0  0999 V2000
   -1.5312   14.5859   -1.1286 C   0  0  0  0  0  0  0  0  0  0  0  0
   -0.1327   14.5671    0.6786 C   0  0  0  0  0  0  0  0  0  0  0  0
   -2.5725   14.9355   -0.3077 C   0  0  0  0  0  0  0  0  0  0  0  0
   -2.3021   15.0956    1.0429 C   0  0  0  0  0  0  0  0  0  0  0  0
   -4.5914   15.3073    0.8362 C   0  0  0  0  0  0  0  0  0  0  0  0
   -4.0053   15.2420   -0.5987 C   0  0  2  0  0  0  0  0  0  0  0  0
   -6.2215   14.2857   -1.2915 C   0  0  0  0  0  0  0  0  0  0  0  0
   -4.3303   14.3948   -2.9404 C   0  0  0  0  0  0  0  0  0  0  0  0
   -4.7039   14.2091   -1.4686 C   0  0  0  0  0  0  0  0  0  0  0  0
   -0.2842   14.3876   -0.6546 N   0  0  0  0  0  0  0  0  0  0  0  0
   -1.0809   14.9183    1.5738 N   0  0  0  0  0  0  0  0  0  0  0  0
   -3.4633   15.4610    1.7398 N   0  0  0  0  0  0  0  0  0  0  0  0
  1  3  2  0
  1 10  1  0
  2 10  2  0
  2 11  1  0
  3  4  1  0
  3  6  1  0
  4 11  2  0
  4 12  1  0
  5  6  1  0
  5 12  1  0
  6  9  1  6
  7  9  1  0
  8  9  1  0
M  END
$$$$
MOL0141
     RDKit          3D

 16 18  0  0  0  0  0  0  0  0999 V2000
   -0.0492   14.8466    1.0891 C   0  0  0  0  0  0  0  0  0  0  0  0
   -2.3817   14.8536   -0.1766 C   0  0  0  0  0  0  0  0  0  0  0  0
   -2.2822   15.2039    1.1593 C   0  0  0  0  0  0  0  0  0  0  0  0
   -1.2326   14.5048   -0.8358 C   0  0  0  0  0  0  0  0  0  0  0  0
   -0.6001   14.8684   -3.2139 C   0  0  0  0  0  0  0  0  0  0  0  0
   -3.7861   14.9607   -0.6542 C   0  0  0  0  0  0  0  0  0  0  0  0
   -0.8433   14.3655   -4.6248 C   0  0  0  0  0  0  0  0  0  0  0  0
   -2.3257   14.1345   -4.8455 C   0  0  0  0  0  0  0  0  0  0  0  0
   -2.8842   13.1143   -3.8611 C   0  0  0  0  0  0  0  0  0  0  0  0
   -4.5404   15.2567    0.6606 C   0  0  0  0  0  0  0  0  0  0  0  0
   -2.0062   12.9228   -2.6233 C   0  0  0  0  0  0  0  0  0  0  0  0
   -1.1180   15.2118    1.8292 N   0  0  0  0  0  0  0  0  0  0  0  0
   -0.0340   14.4893   -0.2173 N   0  0  0  0  0  0  0  0  0  0  0  0
   -3.5396   15.5404    1.6752 N   0  0  0  0  0  0  0  0  0  0  0  0
   -1.3061   14.1503   -2.2279 N   0  0  0  0  0  0  0  0  0  0  0  0
    0.2036   15.7809   -3.0245 O   0  0  0  0  0  0  0  0  0  0  0  0
  1 12  2  0
  1 13  1  0
  2  3  2  0
  2  4  1  0
  2  6  1  0
  3 12  1  0
  3 14  1  0
  4 13  2  0
  4 15  1  0
  5  7  1  0
  5 15  1  0
  5 16  2  0
  6 10  1  0
  7  8  1  0
  8  9  1  0
  9 11  1  0
 10 14  1  0
 11 15  1  0
M  END
$$$$
MOL0034
     RDKit          3D

 11 12  0  0  1  0  0  0  0  0999 V2000
   -1.2519   14.5773   -0.8921 C   0  0  0  0  0  0  0  0  0  0  0  0
   -0.0682   14.4681    1.0596 C   0  0  0  0  0  0  0  0  0  0  0  0
   -2.3694   14.9375   -0.1836 C   0  0  0  0  0  0  0  0  0  0  0  0
   -2.2493   15.0540    1.1929 C   0  0  0  0  0  0  0  0  0  0  0  0
   -4.4937   15.3419    0.7363 C   0  0  0  0  0  0  0  0  0  0  0  0
   -3.7508   15.2958   -0.6248 C   0  0  2  0  0  0  0  0  0  0  0  0
   -5.8008   14.6946   -1.9505 C   0  0  0  0  0  0  0  0  0  0  0  0
   -4.3749   14.3079   -1.5977 C   0  0  0  0  0  0  0  0  0  0  0  0
   -0.0726   14.3281   -0.2868 N   0  0  0  0  0  0  0  0  0  0  0  0
   -1.1016   14.8252    1.8524 N   0  0  0  0  0  0  0  0  0  0  0  0
   -3.4713   15.4370    1.7652 N   0  0  0  0  0  0  0  0  0  0  0  0
  1  3  2  0
  1  9  1  0
  2  9  2  0
  2 10  1  0
  3  4  1  0
  3  6  1  0
  4 10  2  0
  4 11  1  0
  5  6  1  0
  5 11  1  0
  6  8  1  6
  7  8  1  0
M  END
$$$$
MOL0100
     RDKit          3D

 12 13  0  0  1  0  0  0  0  0999 V2000
   -0.9963   14.8274   -0.9175 C   0  0  0  0  0  0  0  0  0  0  0  0
    0.2368   14.8594    1.0062 C   0  0  0  0  0  0  0  0  0  0  0  0
   -2.1398   14.9799   -0.1762 C   0  0  0  0  0  0  0  0  0  0  0  0
   -2.0067   15.0763    1.2007 C   0  0  0  0  0  0  0  0  0  0  0  0
   -4.2784   15.0052    0.7976 C   0  0  0  0  0  0  0  0  0  0  0  0
   -3.5716   15.1192   -0.5787 C   0  0  2  0  0  0  0  0  0  0  0  0
   -4.0922   13.3573   -3.9855 C   0  0  0  0  0  0  0  0  0  0  0  0
   -4.0499   14.0699   -1.5696 C   0  0  0  0  0  0  0  0  0  0  0  0
   -3.5902   14.3915   -2.9904 C   0  0  0  0  0  0  0  0  0  0  0  0
    0.2223   14.7580   -0.3437 N   0  0  0  0  0  0  0  0  0  0  0  0
   -0.8212   15.0203    1.8299 N   0  0  0  0  0  0  0  0  0  0  0  0
   -3.2604   15.2380    1.8086 N   0  0  0  0  0  0  0  0  0  0  0  0
  1  3  2  0
  1 10  1  0
  2 10  2  0
  2 11  1  0
  3  4  1  0
  3  6  1  0
  4 11  2  0
  4 12  1  0
  5  6  1  0
  5 12  1  0
  6  8  1  6
  7  9  1  0
  8  9  1  0
M  END
$$$$
MOL0093
     RDKit          3D

 10 11  0  0  0  0  0  0  0  0999 V2000
   -0.2563   14.8468    1.0801 C   0  0  0  0  0  0  0  0  0  0  0  0
   -2.6274   14.8946   -0.1108 C   0  0  0  0  0  0  0  0  0  0  0  0
   -2.5032   15.0412    1.2605 C   0  0  0  0  0  0  0  0  0  0  0  0
   -1.4827   14.7278   -0.8446 C   0  0  0  0  0  0  0  0  0  0  0  0
   -4.0514   14.9812   -0.5309 C   0  0  0  0  0  0  0  0  0  0  0  0
   -4.7764   15.0213    0.8323 C   0  0  0  0  0  0  0  0  0  0  0  0
   -1.3192   15.0227    1.8943 N   0  0  0  0  0  0  0  0  0  0  0  0
   -0.2647   14.6964   -0.2660 N   0  0  0  0  0  0  0  0  0  0  0  0
   -3.7601   15.2109    1.8535 N   0  0  0  0  0  0  0  0  0  0  0  0
   -1.5365   14.5186   -2.9216 I   0  0  0  0  0  0  0  0  0  0  0  0
  1  7  2  0
  1  8  1  0
  2  3  2  0
  2  4  1  0
  2  5  1  0
  3  7  1  0
  3  9  1  0
  4  8  2  0
  4 10  1  0
  5  6  1  0
  6  9  1  0
M  END
$$$$
MOL0099
     RDKit          3D

 15 17  0  0  0  0  0  0  0  0999 V2000
    0.2373   14.7216    1.2469 C   0  0  0  0  0  0  0  0  0  0  0  0
   -2.0351   14.9497   -0.1046 C   0  0  0  0  0  0  0  0  0  0  0  0
   -1.9711   15.2133    1.2533 C   0  0  0  0  0  0  0  0  0  0  0  0
   -0.8824   14.5693   -0.7395 C   0  0  0  0  0  0  0  0  0  0  0  0
    0.1374   13.9142   -2.9419 C   0  0  0  0  0  0  0  0  0  0  0  0
   -3.4091   15.1727   -0.6283 C   0  0  0  0  0  0  0  0  0  0  0  0
    0.4559   12.7965   -5.2292 C   0  0  0  0  0  0  0  0  0  0  0  0
   -0.9118   12.4210   -4.7436 C   0  0  0  0  0  0  0  0  0  0  0  0
   -4.1990   15.4370    0.6725 C   0  0  0  0  0  0  0  0  0  0  0  0
   -0.3157   13.7283   -4.3683 C   0  0  0  0  0  0  0  0  0  0  0  0
   -0.8378   15.1086    1.9665 N   0  0  0  0  0  0  0  0  0  0  0  0
    0.2859   14.4421   -0.0776 N   0  0  0  0  0  0  0  0  0  0  0  0
   -3.2265   15.5968    1.7403 N   0  0  0  0  0  0  0  0  0  0  0  0
   -0.9174   14.3106   -2.1132 N   0  0  0  0  0  0  0  0  0  0  0  0
    1.3054   13.7152   -2.6229 O   0  0  0  0  0  0  0  0  0  0  0  0
  1 11  2  0
  1 12  1  0
  2  3  2  0
  2  4  1  0
  2  6  1  0
  3 11  1  0
  3 13  1  0
  4 12  2  0
  4 14  1  0
  5 10  1  0
  5 14  1  0
  5 15  2  0
  6  9  1  0
  7  8  1  0
  7 10  1  0
  8 10  1  0
  9 13  1  0
M  END
$$$$
MOL0091
     RDKit          3D

 13 14  0  0  0  0  0  0  0  0999 V2000
   -0.1217   14.5006    0.6732 C   0  0  0  0  0  0  0  0  0  0  0  0
   -2.4570   15.0934   -0.4394 C   0  0  0  0  0  0  0  0  0  0  0  0
   -1.4239   14.6151   -1.2013 C   0  0  0  0  0  0  0  0  0  0  0  0
   -2.2390   15.2597    0.9179 C   0  0  0  0  0  0  0  0  0  0  0  0
   -3.8319   15.5173   -0.8159 C   0  0  0  0  0  0  0  0  0  0  0  0
   -4.4623   15.7932    0.5668 C   0  0  0  0  0  0  0  0  0  0  0  0
   -1.5788   14.4209   -2.6695 C   0  0  0  0  0  0  0  0  0  0  0  0
   -0.2275   14.3026   -0.6626 N   0  0  0  0  0  0  0  0  0  0  0  0
   -1.0697   14.9705    1.5123 N   0  0  0  0  0  0  0  0  0  0  0  0
   -3.3862   15.7632    1.5429 N   0  0  0  0  0  0  0  0  0  0  0  0
   -2.8148   14.7603   -3.1439 F   0  0  0  0  0  0  0  0  0  0  0  0
   -1.3855   13.1244   -3.0532 F   0  0  0  0  0  0  0  0  0  0  0  0
   -0.6991   15.1562   -3.4138 F   0  0  0  0  0  0  0  0  0  0  0  0
  1  8  2  0
  1  9  1  0
  2  3  2  0
  2  4  1  0
  2  5  1  0
  3  7  1  0
  3  8  1  0
  4  9  2  0
  4 10  1  0
  5  6  1  0
  6 10  1  0
  7 11  1  0
  7 12  1  0
  7 13  1  0
M  END
$$$$
MOL0049
     RDKit          3D

 11 12  0  0  0  0  0  0  0  0999 V2000
   -0.0036   14.7093    0.9805 C   0  0  0  0  0  0  0  0  0  0  0  0
   -2.3728   14.9550   -0.1896 C   0  0  0  0  0  0  0  0  0  0  0  0
   -2.2265   15.0799    1.1816 C   0  0  0  0  0  0  0  0  0  0  0  0
   -1.2509   14.7041   -0.9345 C   0  0  0  0  0  0  0  0  0  0  0  0
   -3.7888   15.1578   -0.5968 C   0  0  0  0  0  0  0  0  0  0  0  0
   -4.4974   15.2439    0.7729 C   0  0  0  0  0  0  0  0  0  0  0  0
   -0.1150   14.3200   -2.9886 C   0  0  0  0  0  0  0  0  0  0  0  0
   -1.0427   14.9622    1.8051 N   0  0  0  0  0  0  0  0  0  0  0  0
   -0.0346   14.5712   -0.3666 N   0  0  0  0  0  0  0  0  0  0  0  0
   -3.4612   15.3437    1.7867 N   0  0  0  0  0  0  0  0  0  0  0  0
   -1.3306   14.5808   -2.2927 O   0  0  0  0  0  0  0  0  0  0  0  0
  1  8  2  0
  1  9  1  0
  2  3  2  0
  2  4  1  0
  2  5  1  0
  3  8  1  0
  3 10  1  0
  4  9  2  0
  4 11  1  0
  5  6  1  0
  6 10  1  0
  7 11  1  0
M  END
$$$$
MOL0193
     RDKit          3D

 12 13  0  0  1  0  0  0  0  0999 V2000
   -1.3701   14.8517   -0.7726 C   0  0  0  0  0  0  0  0  0  0  0  0
   -0.0791   14.8068    1.1125 C   0  0  0  0  0  0  0  0  0  0  0  0
   -2.4812   15.0576    0.0043 C   0  0  0  0  0  0  0  0  0  0  0  0
   -2.3015   15.1373    1.3770 C   0  0  0  0  0  0  0  0  0  0  0  0
   -4.5851   15.1859    1.0434 C   0  0  0  0  0  0  0  0  0  0  0  0
   -3.9155   15.2731   -0.3532 C   0  0  2  0  0  0  0  0  0  0  0  0
   -4.4771   14.2567   -1.3347 C   0  0  0  0  0  0  0  0  0  0  0  0
   -5.9501   14.5023   -1.6200 C   0  0  0  0  0  0  0  0  0  0  0  0
   -0.1398   14.7157   -0.2368 N   0  0  0  0  0  0  0  0  0  0  0  0
   -1.1019   15.0160    1.9692 N   0  0  0  0  0  0  0  0  0  0  0  0
   -3.5261   15.3590    2.0240 N   0  0  0  0  0  0  0  0  0  0  0  0
   -6.4120   13.5121   -2.5285 O   0  0  0  0  0  0  0  0  0  0  0  0
  1  3  2  0
  1  9  1  0
  2  9  2  0
  2 10  1  0
  3  4  1  0
  3  6  1  0
  4 10  2  0
  4 11  1  0
  5  6  1  0
  5 11  1  0
  6  7  1  6
  7  8  1  0
  8 12  1  0
M  END
$$$$
MOL0154
     RDKit          3D

 11 12  0  0  1  0  0  0  0  0999 V2000
   -1.1083   14.6852   -0.8405 C   0  0  0  0  0  0  0  0  0  0  0  0
   -0.0497   14.8576    1.1773 C   0  0  0  0  0  0  0  0  0  0  0  0
   -2.3083   14.9229   -0.2209 C   0  0  0  0  0  0  0  0  0  0  0  0
   -2.2948   15.1344    1.1495 C   0  0  0  0  0  0  0  0  0  0  0  0
   -4.5232   15.0739    0.5501 C   0  0  0  0  0  0  0  0  0  0  0  0
   -3.6946   15.0547   -0.7614 C   0  0  2  0  0  0  0  0  0  0  0  0
   -4.1117   13.9328   -1.6989 C   0  0  0  0  0  0  0  0  0  0  0  0
    0.0524   14.6413   -0.1551 N   0  0  0  0  0  0  0  0  0  0  0  0
   -1.1716   15.1092    1.8857 N   0  0  0  0  0  0  0  0  0  0  0  0
   -3.5924   15.3721    1.6260 N   0  0  0  0  0  0  0  0  0  0  0  0
   -3.5705   14.1878   -2.9844 O   0  0  0  0  0  0  0  0  0  0  0  0
  1  3  2  0
  1  8  1  0
  2  8  2  0
  2  9  1  0
  3  4  1  0
  3  6  1  0
  4  9  2  0
  4 10  1  0
  5  6  1  0
  5 10  1  0
  6  7  1  6
  7 11  1  0
M  END
$$$$
MOL0036
     RDKit          3D

 10 11  0  0  1  0  0  0  0  0999 V2000
   -1.4488   14.6109   -1.0117 C   0  0  0  0  0  0  0  0  0  0  0  0
   -0.1874   14.5792    0.8927 C   0  0  0  0  0  0  0  0  0  0  0  0
   -2.5694   14.8218   -0.2511 C   0  0  0  0  0  0  0  0  0  0  0  0
   -2.4147   14.9062    1.1213 C   0  0  0  0  0  0  0  0  0  0  0  0
   -3.9922   15.0051   -0.6461 C   0  0  0  0  0  0  0  0  0  0  0  0
   -4.6966   15.1217    0.7332 C   0  0  1  0  0  0  0  0  0  0  0  0
   -5.6512   13.9609    0.9891 C   0  0  0  0  0  0  0  0  0  0  0  0
   -0.2270   14.4817   -0.4568 N   0  0  0  0  0  0  0  0  0  0  0  0
   -1.2244   14.7884    1.7328 N   0  0  0  0  0  0  0  0  0  0  0  0
   -3.6475   15.1244    1.7457 N   0  0  0  0  0  0  0  0  0  0  0  0
  1  3  2  0
  1  8  1  0
  2  8  2  0
  2  9  1  0
  3  4  1  0
  3  5  1  0
  4  9  2  0
  4 10  1  0
  5  6  1  0
  6  7  1  1
  6 10  1  0
M  END
$$$$
MOL0038
     RDKit          3D

 10 11  0  0  0  0  0  0  0  0999 V2000
   -1.6215   14.8354   -0.9641 C   0  0  0  0  0  0  0  0  0  0  0  0
   -2.8061   14.9996   -0.2960 C   0  0  0  0  0  0  0  0  0  0  0  0
   -2.7680   15.0588    1.0869 C   0  0  0  0  0  0  0  0  0  0  0  0
   -0.5217   14.7934    1.0387 C   0  0  0  0  0  0  0  0  0  0  0  0
   -4.1957   15.1634   -0.8001 C   0  0  0  0  0  0  0  0  0  0  0  0
   -5.0074   15.1479    0.5139 C   0  0  0  0  0  0  0  0  0  0  0  0
   -0.4461   14.7246   -0.3120 N   0  0  0  0  0  0  0  0  0  0  0  0
   -1.6297   14.9588    1.7927 N   0  0  0  0  0  0  0  0  0  0  0  0
   -4.0552   15.2384    1.6078 N   0  0  0  0  0  0  0  0  0  0  0  0
    0.6681   14.6826    1.7211 O   0  0  0  0  0  0  0  0  0  0  0  0
  1  2  2  0
  1  7  1  0
  2  3  1  0
  2  5  1  0
  3  8  2  0
  3  9  1  0
  4  7  2  0
  4  8  1  0
  4 10  1  0
  5  6  1  0
  6  9  1  0
M  END
$$$$
MOL0122
     RDKit          3D

 12 13  0  0  1  0  0  0  0  0999 V2000
   -0.9701   14.6607   -0.7449 C   0  0  0  0  0  0  0  0  0  0  0  0
   -0.0826   15.0192    1.3074 C   0  0  0  0  0  0  0  0  0  0  0  0
   -2.2599   14.7750   -0.2506 C   0  0  0  0  0  0  0  0  0  0  0  0
   -2.3708   14.9900    1.1253 C   0  0  0  0  0  0  0  0  0  0  0  0
   -4.7799   14.5848    0.9491 C   0  0  0  0  0  0  0  0  0  0  0  0
   -4.6752   14.9994   -0.5239 C   0  0  2  0  0  0  0  0  0  0  0  0
   -7.1514   14.7217   -0.8592 C   0  0  0  0  0  0  0  0  0  0  0  0
   -5.7698   14.3378   -1.3548 C   0  0  0  0  0  0  0  0  0  0  0  0
    0.1422   14.7814    0.0056 N   0  0  0  0  0  0  0  0  0  0  0  0
   -1.2791   15.1322    1.9148 N   0  0  0  0  0  0  0  0  0  0  0  0
   -3.3723   14.6347   -1.0613 N   0  0  0  0  0  0  0  0  0  0  0  0
   -3.6364   15.0679    1.6997 N   0  0  0  0  0  0  0  0  0  0  0  0
  1  3  2  0
  1  9  1  0
  2  9  2  0
  2 10  1  0
  3  4  1  0
  3 11  1  0
  4 10  2  0
  4 12  1  0
  5  6  1  0
  5 12  1  0
  6  8  1  6
  6 11  1  0
  7  8  1  0
M  END
$$$$
MOL0192
     RDKit          3D

 15 17  0  0  1  0  0  0  0  0999 V2000
   -5.4589   13.2589   -3.8297 C   0  0  0  0  0  0  0  0  0  0  0  0
   -4.5649   12.6975   -2.9180 C   0  0  0  0  0  0  0  0  0  0  0  0
   -5.7610   14.6189   -3.7621 C   0  0  0  0  0  0  0  0  0  0  0  0
   -3.9729   13.4958   -1.9391 C   0  0  0  0  0  0  0  0  0  0  0  0
   -5.1690   15.4173   -2.7833 C   0  0  0  0  0  0  0  0  0  0  0  0
   -1.1665   14.8688   -0.9741 C   0  0  0  0  0  0  0  0  0  0  0  0
   -0.1205   14.5523    1.0322 C   0  0  0  0  0  0  0  0  0  0  0  0
   -4.2750   14.8559   -1.8716 C   0  0  0  0  0  0  0  0  0  0  0  0
   -2.3060   15.2457   -0.3094 C   0  0  0  0  0  0  0  0  0  0  0  0
   -2.2678   15.2659    1.0761 C   0  0  0  0  0  0  0  0  0  0  0  0
   -4.4505   15.7943    0.5117 C   0  0  0  0  0  0  0  0  0  0  0  0
   -3.6345   15.7202   -0.8123 C   0  0  2  0  0  0  0  0  0  0  0  0
   -0.0454   14.5057   -0.3186 N   0  0  0  0  0  0  0  0  0  0  0  0
   -1.1801   14.9201    1.7846 N   0  0  0  0  0  0  0  0  0  0  0  0
   -3.4925   15.6982    1.6012 N   0  0  0  0  0  0  0  0  0  0  0  0
  1  2  2  0
  1  3  1  0
  2  4  1  0
  3  5  2  0
  4  8  2  0
  5  8  1  0
  6  9  2  0
  6 13  1  0
  7 13  2  0
  7 14  1  0
 12  8  1  6
  9 10  1  0
  9 12  1  0
 10 14  2  0
 10 15  1  0
 11 12  1  0
 11 15  1  0
M  END
$$$$
MOL0158
     RDKit          3D

 11 12  0  0  0  0  0  0  0  0999 V2000
    0.0376   14.6673    1.1448 C   0  0  0  0  0  0  0  0  0  0  0  0
   -2.2270   14.9176   -0.2159 C   0  0  0  0  0  0  0  0  0  0  0  0
   -1.0543   14.6288   -0.8624 C   0  0  0  0  0  0  0  0  0  0  0  0
   -2.1873   15.0777    1.1589 C   0  0  0  0  0  0  0  0  0  0  0  0
   -3.6026   15.1310   -0.7395 C   0  0  0  0  0  0  0  0  0  0  0  0
   -4.4156   15.2656    0.5668 C   0  0  0  0  0  0  0  0  0  0  0  0
   -1.0156   14.4542   -2.3407 C   0  0  0  0  0  0  0  0  0  0  0  0
    0.1107   14.4928   -0.1964 N   0  0  0  0  0  0  0  0  0  0  0  0
   -1.0588   14.9588    1.8774 N   0  0  0  0  0  0  0  0  0  0  0  0
   -3.4612   15.3772    1.6569 N   0  0  0  0  0  0  0  0  0  0  0  0
   -1.5749   13.1916   -2.6840 O   0  0  0  0  0  0  0  0  0  0  0  0
  1  8  2  0
  1  9  1  0
  2  3  2  0
  2  4  1  0
  2  5  1  0
  3  7  1  0
  3  8  1  0
  4  9  2  0
  4 10  1  0
  5  6  1  0
  6 10  1  0
  7 11  1  0
M  END
$$$$
MOL0134
     RDKit          3D

 12 13  0  0  0  0  0  0  0  0999 V2000
   -0.2207   14.7290    1.0450 C   0  0  0  0  0  0  0  0  0  0  0  0
   -2.6521   14.8780   -0.0079 C   0  0  0  0  0  0  0  0  0  0  0  0
   -2.4151   15.2083    1.3158 C   0  0  0  0  0  0  0  0  0  0  0  0
   -1.5872   14.4733   -0.7688 C   0  0  0  0  0  0  0  0  0  0  0  0
   -4.0850   15.0676   -0.3580 C   0  0  0  0  0  0  0  0  0  0  0  0
   -4.7021   15.3911    1.0204 C   0  0  0  0  0  0  0  0  0  0  0  0
   -1.1976   15.1449    1.8793 N   0  0  0  0  0  0  0  0  0  0  0  0
   -0.3413   14.3851   -0.2596 N   0  0  0  0  0  0  0  0  0  0  0  0
   -3.6010   15.6084    1.9434 N   0  0  0  0  0  0  0  0  0  0  0  0
   -1.8442   14.1482   -2.1355 N   0  0  0  0  0  0  0  0  0  0  0  0
   -3.0142   14.2476   -2.5658 O   0  0  0  0  0  0  0  0  0  0  0  0
   -0.8895   13.7758   -2.8530 O   0  0  0  0  0  0  0  0  0  0  0  0
  1  7  2  0
  1  8  1  0
  2  3  2  0
  2  4  1  0
  2  5  1  0
  3  7  1  0
  3  9  1  0
  4  8  2  0
  4 10  1  0
  5  6  1  0
  6  9  1  0
 10 11  1  0
 10 12  2  0
M  CHG  2  10   1  11  -1
M  END
$$$$
MOL0151
     RDKit          3D

 11 12  0  0  0  0  0  0  0  0999 V2000
   -0.0040   14.7572    0.9872 C   0  0  0  0  0  0  0  0  0  0  0  0
   -2.2686   15.0075   -0.3736 C   0  0  0  0  0  0  0  0  0  0  0  0
   -1.0959   14.7188   -1.0201 C   0  0  0  0  0  0  0  0  0  0  0  0
   -2.2289   15.1676    1.0013 C   0  0  0  0  0  0  0  0  0  0  0  0
   -3.6441   15.2210   -0.8972 C   0  0  0  0  0  0  0  0  0  0  0  0
   -4.4571   15.3556    0.4091 C   0  0  0  0  0  0  0  0  0  0  0  0
   -1.0572   14.5442   -2.4983 C   0  0  0  0  0  0  0  0  0  0  0  0
    0.0691   14.5828   -0.3541 N   0  0  0  0  0  0  0  0  0  0  0  0
   -1.1003   15.0488    1.7197 N   0  0  0  0  0  0  0  0  0  0  0  0
   -3.5028   15.4671    1.4992 N   0  0  0  0  0  0  0  0  0  0  0  0
   -1.6031   13.2776   -2.9173 N   0  0  0  0  0  0  0  0  0  0  0  0
  1  8  2  0
  1  9  1  0
  2  3  2  0
  2  4  1  0
  2  5  1  0
  3  7  1  0
  3  8  1  0
  4  9  2  0
  4 10  1  0
  5  6  1  0
  6 10  1  0
  7 11  1  0
M  END
$$$$
MOL0013
     RDKit          3D

 10 11  0  0  0  0  0  0  0  0999 V2000
   -0.0675   14.9242    0.8405 C   0  0  0  0  0  0  0  0  0  0  0  0
   -2.4521   15.1484   -0.3023 C   0  0  0  0  0  0  0  0  0  0  0  0
   -2.2937   15.2566    1.0691 C   0  0  0  0  0  0  0  0  0  0  0  0
   -1.3340   14.9256   -1.0617 C   0  0  0  0  0  0  0  0  0  0  0  0
   -3.8752   15.3343   -0.6924 C   0  0  0  0  0  0  0  0  0  0  0  0
   -4.5710   15.3902    0.6853 C   0  0  0  0  0  0  0  0  0  0  0  0
   -1.1019   15.1492    1.6790 N   0  0  0  0  0  0  0  0  0  0  0  0
   -0.1101   14.8043   -0.5080 N   0  0  0  0  0  0  0  0  0  0  0  0
   -3.5262   15.4925    1.6901 N   0  0  0  0  0  0  0  0  0  0  0  0
   -1.3819   14.7865   -2.7670 Cl  0  0  0  0  0  0  0  0  0  0  0  0
  1  7  2  0
  1  8  1  0
  2  3  2  0
  2  4  1  0
  2  5  1  0
  3  7  1  0
  3  9  1  0
  4  8  2  0
  4 10  1  0
  5  6  1  0
  6  9  1  0
M  END
$$$$
MOL0007
     RDKit          3D

 10 11  0  0  0  0  0  0  0  0999 V2000
   -1.3860   14.8394   -0.9510 C   0  0  0  0  0  0  0  0  0  0  0  0
   -2.5682   15.0197   -0.2829 C   0  0  0  0  0  0  0  0  0  0  0  0
   -2.5293   15.0784    1.1000 C   0  0  0  0  0  0  0  0  0  0  0  0
   -0.2868   14.7825    1.0518 C   0  0  0  0  0  0  0  0  0  0  0  0
   -3.9555   15.2024   -0.7870 C   0  0  0  0  0  0  0  0  0  0  0  0
   -4.7673   15.1980    0.5270 C   0  0  0  0  0  0  0  0  0  0  0  0
   -0.2121   14.7127   -0.2989 N   0  0  0  0  0  0  0  0  0  0  0  0
   -1.3924   14.9630    1.8058 N   0  0  0  0  0  0  0  0  0  0  0  0
   -3.8139   15.2755    1.6209 N   0  0  0  0  0  0  0  0  0  0  0  0
    0.9333   14.6522    1.7518 N   0  0  0  0  0  0  0  0  0  0  0  0
  1  2  2  0
  1  7  1  0
  2  3  1  0
  2  5  1  0
  3  8  2  0
  3  9  1  0
  4  7  2  0
  4  8  1  0
  4 10  1  0
  5  6  1  0
  6  9  1  0
M  END
$$$$
MOL0043
     RDKit          3D

 10 11  0  0  0  0  0  0  0  0999 V2000
   -0.1700   14.7262    0.7981 C   0  0  0  0  0  0  0  0  0  0  0  0
   -2.5257   14.8614   -0.4164 C   0  0  0  0  0  0  0  0  0  0  0  0
   -2.3715   15.2361    0.9077 C   0  0  0  0  0  0  0  0  0  0  0  0
   -1.4184   14.4197   -1.0914 C   0  0  0  0  0  0  0  0  0  0  0  0
   -3.9304   15.0523   -0.8661 C   0  0  0  0  0  0  0  0  0  0  0  0
   -4.6321   15.4303    0.4569 C   0  0  0  0  0  0  0  0  0  0  0  0
   -1.1942   15.1809    1.5517 N   0  0  0  0  0  0  0  0  0  0  0  0
   -0.2095   14.3376   -0.4988 N   0  0  0  0  0  0  0  0  0  0  0  0
   -3.5910   15.6695    1.4420 N   0  0  0  0  0  0  0  0  0  0  0  0
   -1.5353   13.9047   -2.9118 Br  0  0  0  0  0  0  0  0  0  0  0  0
  1  7  2  0
  1  8  1  0
  2  3  2  0
  2  4  1  0
  2  5  1  0
  3  7  1  0
  3  9  1  0
  4  8  2  0
  4 10  1  0
  5  6  1  0
  6  9  1  0
M  END
$$$$
MOL0040
     RDKit          3D

 11 12  0  0  0  0  0  0  0  0999 V2000
   -1.6252   14.3108   -2.3851 C   0  0  0  0  0  0  0  0  0  0  0  0
   -0.2537   14.7352    0.8839 C   0  0  0  0  0  0  0  0  0  0  0  0
   -1.5617   14.5286   -0.9786 C   0  0  0  0  0  0  0  0  0  0  0  0
   -2.6735   14.7362   -0.2057 C   0  0  0  0  0  0  0  0  0  0  0  0
   -2.4903   14.9486    1.1503 C   0  0  0  0  0  0  0  0  0  0  0  0
   -4.1140   14.8089   -0.5684 C   0  0  0  0  0  0  0  0  0  0  0  0
   -4.7798   14.9185    0.8209 C   0  0  0  0  0  0  0  0  0  0  0  0
   -1.6768   14.1334   -3.5309 N   0  0  0  0  0  0  0  0  0  0  0  0
   -0.3202   14.5196   -0.4517 N   0  0  0  0  0  0  0  0  0  0  0  0
   -1.2803   14.9554    1.7332 N   0  0  0  0  0  0  0  0  0  0  0  0
   -3.7203   15.1527    1.7874 N   0  0  0  0  0  0  0  0  0  0  0  0
  1  3  1  0
  1  8  3  0
  2  9  2  0
  2 10  1  0
  3  4  2  0
  3  9  1  0
  4  5  1  0
  4  6  1  0
  5 10  2  0
  5 11  1  0
  6  7  1  0
  7 11  1  0
M  END
$$$$
MOL0057
     RDKit          3D

 10 11  0  0  1  0  0  0  0  0999 V2000
   -1.1467   14.5967   -1.0287 C   0  0  0  0  0  0  0  0  0  0  0  0
    0.0171   14.9411    0.9074 C   0  0  0  0  0  0  0  0  0  0  0  0
   -2.3054   14.9449   -0.3834 C   0  0  0  0  0  0  0  0  0  0  0  0
   -2.2160   15.2998    0.9541 C   0  0  0  0  0  0  0  0  0  0  0  0
   -4.4725   15.2622    0.4687 C   0  0  0  0  0  0  0  0  0  0  0  0
   -3.7120   15.0721   -0.8700 C   0  0  2  0  0  0  0  0  0  0  0  0
   -4.2130   13.8741   -1.6608 C   0  0  0  0  0  0  0  0  0  0  0  0
    0.0449   14.5809   -0.3972 N   0  0  0  0  0  0  0  0  0  0  0  0
   -1.0587   15.3095    1.6359 N   0  0  0  0  0  0  0  0  0  0  0  0
   -3.4794   15.6367    1.4619 N   0  0  0  0  0  0  0  0  0  0  0  0
  1  3  2  0
  1  8  1  0
  2  8  2  0
  2  9  1  0
  3  4  1  0
  3  6  1  0
  4  9  2  0
  4 10  1  0
  5  6  1  0
  5 10  1  0
  6  7  1  1
M  END
$$$$
MOL0128
     RDKit          3D

 11 12  0  0  1  0  0  0  0  0999 V2000
   -2.3255   15.1929    1.1002 C   0  0  0  0  0  0  0  0  0  0  0  0
   -0.1553   14.5618    0.9024 C   0  0  0  0  0  0  0  0  0  0  0  0
   -2.5355   15.0845   -0.2688 C   0  0  0  0  0  0  0  0  0  0  0  0
   -1.4093   14.7181   -1.0056 C   0  0  0  0  0  0  0  0  0  0  0  0
   -1.4665   14.5675   -2.5018 C   0  0  0  0  0  0  0  0  0  0  0  0
   -2.6371   15.3178   -3.1261 C   0  0  0  0  0  0  0  0  0  0  0  0
   -3.9241   14.9747   -2.3876 C   0  0  0  0  0  0  0  0  0  0  0  0
   -3.8565   15.4315   -0.9183 C   0  0  1  0  0  0  0  0  0  0  0  0
   -5.0716   14.8695   -0.1702 C   0  0  0  0  0  0  0  0  0  0  0  0
   -1.1544   14.9325    1.7183 N   0  0  0  0  0  0  0  0  0  0  0  0
   -0.2122   14.4377   -0.4347 N   0  0  0  0  0  0  0  0  0  0  0  0
  1  3  2  0
  1 10  1  0
  2 10  2  0
  2 11  1  0
  3  4  1  0
  3  8  1  0
  4  5  1  0
  4 11  2  0
  5  6  1  0
  6  7  1  0
  7  8  1  0
  8  9  1  1
M  END
$$$$
MOL0092
     RDKit          3D

 11 12  0  0  1  0  0  0  0  0999 V2000
   -4.2092   14.2804   -1.5203 C   0  0  0  0  0  0  0  0  0  0  0  0
   -1.0700   14.4460   -1.0037 C   0  0  0  0  0  0  0  0  0  0  0  0
    0.1620   14.4597    0.9205 C   0  0  0  0  0  0  0  0  0  0  0  0
   -2.1484   14.9296   -0.3066 C   0  0  0  0  0  0  0  0  0  0  0  0
   -1.9811   15.1744    1.0478 C   0  0  0  0  0  0  0  0  0  0  0  0
   -4.2131   15.5844    0.6103 C   0  0  0  0  0  0  0  0  0  0  0  0
   -3.5193   15.3199   -0.7525 C   0  0  2  0  0  0  0  0  0  0  0  0
   -4.7562   13.4574   -2.1292 N   0  0  0  0  0  0  0  0  0  0  0  0
    0.1120   14.1924   -0.4055 N   0  0  0  0  0  0  0  0  0  0  0  0
   -0.8280   14.9475    1.6987 N   0  0  0  0  0  0  0  0  0  0  0  0
   -3.1595   15.6868    1.6068 N   0  0  0  0  0  0  0  0  0  0  0  0
  7  1  1  1
  1  8  3  0
  2  4  2  0
  2  9  1  0
  3  9  2  0
  3 10  1  0
  4  5  1  0
  4  7  1  0
  5 10  2  0
  5 11  1  0
  6  7  1  0
  6 11  1  0
M  END
$$$$
MOL0124
     RDKit          3D

 11 12  0  0  1  0  0  0  0  0999 V2000
   -1.2521   14.8145   -0.7940 C   0  0  0  0  0  0  0  0  0  0  0  0
   -0.1471   15.1192    1.1829 C   0  0  0  0  0  0  0  0  0  0  0  0
   -2.4439   15.0287   -0.1504 C   0  0  0  0  0  0  0  0  0  0  0  0
   -2.4020   15.3001    1.2089 C   0  0  0  0  0  0  0  0  0  0  0  0
   -4.6412   15.1199    0.6778 C   0  0  0  0  0  0  0  0  0  0  0  0
   -3.8489   15.0791   -0.6553 C   0  0  2  0  0  0  0  0  0  0  0  0
   -4.2428   13.9019   -1.5331 C   0  0  0  0  0  0  0  0  0  0  0  0
   -0.0722   14.8492   -0.1415 N   0  0  0  0  0  0  0  0  0  0  0  0
   -1.2590   15.3542    1.9125 N   0  0  0  0  0  0  0  0  0  0  0  0
   -3.6952   15.5038    1.7125 N   0  0  0  0  0  0  0  0  0  0  0  0
   -3.7534   14.0957   -2.8911 N   0  0  0  0  0  0  0  0  0  0  0  0
  1  3  2  0
  1  8  1  0
  2  8  2  0
  2  9  1  0
  3  4  1  0
  3  6  1  0
  4  9  2  0
  4 10  1  0
  5  6  1  0
  5 10  1  0
  6  7  1  1
  7 11  1  0
M  END
$$$$
MOL0069
     RDKit          3D

 12 13  0  0  1  0  0  0  0  0999 V2000
   -0.7549   14.5364   -1.1193 C   0  0  0  0  0  0  0  0  0  0  0  0
    0.1754   14.7807    0.9308 C   0  0  0  0  0  0  0  0  0  0  0  0
   -2.0298   14.7142   -0.6054 C   0  0  0  0  0  0  0  0  0  0  0  0
   -2.1122   14.8954    0.7773 C   0  0  0  0  0  0  0  0  0  0  0  0
   -4.5433   14.6421    0.6206 C   0  0  0  0  0  0  0  0  0  0  0  0
   -4.4299   15.0923   -0.8413 C   0  0  2  0  0  0  0  0  0  0  0  0
   -5.5718   14.5226   -1.6765 C   0  0  0  0  0  0  0  0  0  0  0  0
    0.3709   14.5676   -0.3799 N   0  0  0  0  0  0  0  0  0  0  0  0
   -1.0052   14.9482    1.5565 N   0  0  0  0  0  0  0  0  0  0  0  0
   -3.1576   14.6651   -1.4055 N   0  0  0  0  0  0  0  0  0  0  0  0
   -3.3643   15.0330    1.3699 N   0  0  0  0  0  0  0  0  0  0  0  0
   -5.4252   14.9760   -3.0103 O   0  0  0  0  0  0  0  0  0  0  0  0
  1  3  2  0
  1  8  1  0
  2  8  2  0
  2  9  1  0
  3  4  1  0
  3 10  1  0
  4  9  2  0
  4 11  1  0
  5  6  1  0
  5 11  1  0
  6  7  1  6
  6 10  1  0
  7 12  1  0
M  END
$$$$
MOL0004
     RDKit          3D

 10 11  0  0  1  0  0  0  0  0999 V2000
   -1.4133   14.8805   -0.8964 C   0  0  0  0  0  0  0  0  0  0  0  0
   -0.1836   14.4961    0.9911 C   0  0  0  0  0  0  0  0  0  0  0  0
   -2.5249   15.0842   -0.1197 C   0  0  0  0  0  0  0  0  0  0  0  0
   -2.3777   14.9803    1.2552 C   0  0  0  0  0  0  0  0  0  0  0  0
   -4.6393   15.2638    0.8900 C   0  0  0  0  0  0  0  0  0  0  0  0
   -3.9259   15.4632   -0.4731 C   0  0  2  0  0  0  0  0  0  0  0  0
   -4.5418   14.6257   -1.5826 C   0  0  0  0  0  0  0  0  0  0  0  0
   -0.2138   14.5758   -0.3599 N   0  0  0  0  0  0  0  0  0  0  0  0
   -1.2093   14.6858    1.8490 N   0  0  0  0  0  0  0  0  0  0  0  0
   -3.5976   15.2250    1.9030 N   0  0  0  0  0  0  0  0  0  0  0  0
  1  3  2  0
  1  8  1  0
  2  8  2  0
  2  9  1  0
  3  4  1  0
  3  6  1  0
  4  9  2  0
  4 10  1  0
  5  6  1  0
  5 10  1  0
  6  7  1  6
M  END
$$$$
MOL0082
     RDKit          3D

 13 14  0  0  1  0  0  0  0  0999 V2000
   -0.9299   14.5221   -0.7311 C   0  0  0  0  0  0  0  0  0  0  0  0
    0.0720   14.7840    1.2837 C   0  0  0  0  0  0  0  0  0  0  0  0
   -2.1836   14.7325   -0.1783 C   0  0  0  0  0  0  0  0  0  0  0  0
   -2.2100   15.0125    1.1901 C   0  0  0  0  0  0  0  0  0  0  0  0
   -4.5759   15.6080    0.9770 C   0  0  0  0  0  0  0  0  0  0  0  0
   -4.6231   14.7092   -0.2650 C   0  0  1  0  0  0  0  0  0  0  0  0
   -8.1670   15.6075   -1.5352 C   0  0  0  0  0  0  0  0  0  0  0  0
   -5.7080   15.1724   -1.2303 C   0  0  0  0  0  0  0  0  0  0  0  0
   -7.0811   15.1714   -0.5644 C   0  0  0  0  0  0  0  0  0  0  0  0
    0.2201   14.5368   -0.0279 N   0  0  0  0  0  0  0  0  0  0  0  0
   -1.0803   15.0227    1.9378 N   0  0  0  0  0  0  0  0  0  0  0  0
   -3.3352   14.7158   -0.9442 N   0  0  0  0  0  0  0  0  0  0  0  0
   -3.4310   15.2803    1.8038 N   0  0  0  0  0  0  0  0  0  0  0  0
  1  3  2  0
  1 10  1  0
  2 10  2  0
  2 11  1  0
  3  4  1  0
  3 12  1  0
  4 11  2  0
  4 13  1  0
  5  6  1  0
  5 13  1  0
  6  8  1  6
  6 12  1  0
  7  9  1  0
  8  9  1  0
M  END
$$$$
MOL0035
     RDKit          3D

 11 12  0  0  1  0  0  0  0  0999 V2000
   -0.9769   14.7769   -1.0855 C   0  0  0  0  0  0  0  0  0  0  0  0
   -0.0316   15.1070    0.9456 C   0  0  0  0  0  0  0  0  0  0  0  0
   -2.2518   14.8264   -0.5441 C   0  0  0  0  0  0  0  0  0  0  0  0
   -2.3221   14.9952    0.8409 C   0  0  0  0  0  0  0  0  0  0  0  0
   -4.7191   14.5029    0.7341 C   0  0  0  0  0  0  0  0  0  0  0  0
   -4.6820   14.9657   -0.7277 C   0  0  2  0  0  0  0  0  0  0  0  0
   -5.7796   14.2878   -1.5413 C   0  0  0  0  0  0  0  0  0  0  0  0
    0.1559   14.9176   -0.3699 N   0  0  0  0  0  0  0  0  0  0  0  0
   -1.2093   15.1553    1.5968 N   0  0  0  0  0  0  0  0  0  0  0  0
   -3.3861   14.6679   -1.3205 N   0  0  0  0  0  0  0  0  0  0  0  0
   -3.5687   15.0068    1.4602 N   0  0  0  0  0  0  0  0  0  0  0  0
  1  3  2  0
  1  8  1  0
  2  8  2  0
  2  9  1  0
  3  4  1  0
  3 10  1  0
  4  9  2  0
  4 11  1  0
  5  6  1  0
  5 11  1  0
  6  7  1  6
  6 10  1  0
M  END
$$$$
MOL0051
     RDKit          3D

 11 12  0  0  0  0  0  0  0  0999 V2000
   -1.0725   14.5079   -0.9178 C   0  0  0  0  0  0  0  0  0  0  0  0
   -0.1360   14.9253    1.1075 C   0  0  0  0  0  0  0  0  0  0  0  0
   -2.3464   14.6028   -0.3841 C   0  0  0  0  0  0  0  0  0  0  0  0
   -2.4130   14.8753    0.9714 C   0  0  0  0  0  0  0  0  0  0  0  0
   -4.8799   14.8380    0.9078 C   0  0  0  0  0  0  0  0  0  0  0  0
   -3.5731   14.4247   -1.2063 C   0  0  0  0  0  0  0  0  0  0  0  0
    0.0568   14.6642   -0.1978 N   0  0  0  0  0  0  0  0  0  0  0  0
   -1.3171   15.0419    1.7440 N   0  0  0  0  0  0  0  0  0  0  0  0
   -3.6769   14.9845    1.5752 N   0  0  0  0  0  0  0  0  0  0  0  0
   -4.8026   14.5659   -0.4456 N   0  0  0  0  0  0  0  0  0  0  0  0
   -5.9629   14.9443    1.4887 O   0  0  0  0  0  0  0  0  0  0  0  0
  1  3  2  0
  1  7  1  0
  2  7  2  0
  2  8  1  0
  3  4  1  0
  3  6  1  0
  4  8  2  0
  4  9  1  0
  5  9  1  0
  5 10  1  0
  5 11  2  0
  6 10  1  0
M  END
$$$$
MOL0152
     RDKit          3D

 13 15  0  0  1  0  0  0  0  0999 V2000
   -0.6316   14.4821   -0.7115 C   0  0  0  0  0  0  0  0  0  0  0  0
    0.3407   14.9015    1.2912 C   0  0  0  0  0  0  0  0  0  0  0  0
   -1.8961   14.6982   -0.1864 C   0  0  0  0  0  0  0  0  0  0  0  0
   -1.9449   15.0677    1.1599 C   0  0  0  0  0  0  0  0  0  0  0  0
   -5.9286   13.9583   -2.2769 C   0  0  0  0  0  0  0  0  0  0  0  0
   -6.8081   14.4291   -1.1523 C   0  0  0  0  0  0  0  0  0  0  0  0
   -4.3215   15.5900    0.8843 C   0  0  0  0  0  0  0  0  0  0  0  0
   -5.4176   14.9814   -1.3002 C   0  0  0  0  0  0  0  0  0  0  0  0
   -4.3333   14.6098   -0.2955 C   0  0  1  0  0  0  0  0  0  0  0  0
    0.5096   14.5714    0.0005 N   0  0  0  0  0  0  0  0  0  0  0  0
   -0.8244   15.1550    1.9164 N   0  0  0  0  0  0  0  0  0  0  0  0
   -3.0382   14.6026   -0.9609 N   0  0  0  0  0  0  0  0  0  0  0  0
   -3.1788   15.3459    1.7423 N   0  0  0  0  0  0  0  0  0  0  0  0
  1  3  2  0
  1 10  1  0
  2 10  2  0
  2 11  1  0
  3  4  1  0
  3 12  1  0
  4 11  2  0
  4 13  1  0
  5  6  1  0
  5  8  1  0
  6  8  1  0
  7  9  1  0
  7 13  1  0
  9  8  1  6
  9 12  1  0
M  END
$$$$
MOL0020
     RDKit          3D

 11 12  0  0  1  0  0  0  0  0999 V2000
   -1.2598   14.5596   -0.9589 C   0  0  0  0  0  0  0  0  0  0  0  0
   -0.3243   14.9198    1.0728 C   0  0  0  0  0  0  0  0  0  0  0  0
   -2.5373   14.6573   -0.4308 C   0  0  0  0  0  0  0  0  0  0  0  0
   -2.6164   14.8678    0.9480 C   0  0  0  0  0  0  0  0  0  0  0  0
   -4.9515   14.8770   -0.6441 C   0  0  0  0  0  0  0  0  0  0  0  0
   -5.0364   14.4558    0.8285 C   0  0  2  0  0  0  0  0  0  0  0  0
   -6.2987   15.0098    1.4813 C   0  0  0  0  0  0  0  0  0  0  0  0
   -0.1302   14.6897   -0.2353 N   0  0  0  0  0  0  0  0  0  0  0  0
   -1.5071   15.0176    1.7102 N   0  0  0  0  0  0  0  0  0  0  0  0
   -3.6683   14.5094   -1.2119 N   0  0  0  0  0  0  0  0  0  0  0  0
   -3.8678   14.9291    1.5567 N   0  0  0  0  0  0  0  0  0  0  0  0
  1  3  2  0
  1  8  1  0
  2  8  2  0
  2  9  1  0
  3  4  1  0
  3 10  1  0
  4  9  2  0
  4 11  1  0
  5  6  1  0
  5 10  1  0
  6  7  1  1
  6 11  1  0
M  END
$$$$
MOL0016
     RDKit          3D

 11 12  0  0  0  0  0  0  0  0999 V2000
   -1.3653   14.8241   -0.8014 C   0  0  0  0  0  0  0  0  0  0  0  0
   -0.1025   14.9872    1.0951 C   0  0  0  0  0  0  0  0  0  0  0  0
   -2.5051   14.8740   -0.0383 C   0  0  0  0  0  0  0  0  0  0  0  0
   -2.3527   14.9869    1.3355 C   0  0  0  0  0  0  0  0  0  0  0  0
   -4.6219   14.7115    0.9882 C   0  0  0  0  0  0  0  0  0  0  0  0
   -3.9574   14.8562   -0.4168 C   0  0  0  0  0  0  0  0  0  0  0  0
   -4.3121   13.6750   -1.3228 C   0  0  0  0  0  0  0  0  0  0  0  0
   -4.3569   16.1799   -1.0801 C   0  0  0  0  0  0  0  0  0  0  0  0
   -0.1343   14.8767   -0.2532 N   0  0  0  0  0  0  0  0  0  0  0  0
   -1.1543   15.0488    1.9396 N   0  0  0  0  0  0  0  0  0  0  0  0
   -3.6000   15.0326    1.9720 N   0  0  0  0  0  0  0  0  0  0  0  0
  1  3  2  0
  1  9  1  0
  2  9  2  0
  2 10  1  0
  3  4  1  0
  3  6  1  0
  4 10  2  0
  4 11  1  0
  5  6  1  0
  5 11  1  0
  6  7  1  0
  6  8  1  0
M  END
$$$$
MOL0018
     RDKit          3D

 10 11  0  0  0  0  0  0  0  0999 V2000
   -0.0395   15.0917    1.1253 C   0  0  0  0  0  0  0  0  0  0  0  0
   -2.2794   14.5510   -0.1913 C   0  0  0  0  0  0  0  0  0  0  0  0
   -1.0666   14.4893   -0.8253 C   0  0  0  0  0  0  0  0  0  0  0  0
   -2.2944   14.9073    1.1467 C   0  0  0  0  0  0  0  0  0  0  0  0
   -3.6585   14.3238   -0.6996 C   0  0  0  0  0  0  0  0  0  0  0  0
   -4.4892   14.4244    0.5986 C   0  0  0  0  0  0  0  0  0  0  0  0
   -0.9713   14.1251   -2.2660 C   0  0  0  0  0  0  0  0  0  0  0  0
    0.0878   14.7558   -0.1807 N   0  0  0  0  0  0  0  0  0  0  0  0
   -1.1800   15.1880    1.8420 N   0  0  0  0  0  0  0  0  0  0  0  0
   -3.6064   14.9321    1.6351 N   0  0  0  0  0  0  0  0  0  0  0  0
  1  8  2  0
  1  9  1  0
  2  3  2  0
  2  4  1  0
  2  5  1  0
  3  7  1  0
  3  8  1  0
  4  9  2  0
  4 10  1  0
  5  6  1  0
  6 10  1  0
M  END
$$$$
MOL0003
     RDKit          3D

  9 10  0  0  0  0  0  0  0  0999 V2000
   -1.6463   14.7343   -0.9730 C   0  0  0  0  0  0  0  0  0  0  0  0
   -0.1699   14.7521    0.7713 C   0  0  0  0  0  0  0  0  0  0  0  0
   -2.6699   14.9668   -0.0928 C   0  0  0  0  0  0  0  0  0  0  0  0
   -2.3552   15.0898    1.2501 C   0  0  0  0  0  0  0  0  0  0  0  0
   -4.1283   15.1502   -0.3191 C   0  0  0  0  0  0  0  0  0  0  0  0
   -4.6615   15.2220    1.1286 C   0  0  0  0  0  0  0  0  0  0  0  0
   -0.3669   14.6175   -0.5620 N   0  0  0  0  0  0  0  0  0  0  0  0
   -1.1013   14.9875    1.7204 N   0  0  0  0  0  0  0  0  0  0  0  0
   -3.5084   15.3339    2.0057 N   0  0  0  0  0  0  0  0  0  0  0  0
  1  3  2  0
  1  7  1  0
  2  7  2  0
  2  8  1  0
  3  4  1  0
  3  5  1  0
  4  8  2  0
  4  9  1  0
  5  6  1  0
  6  9  1  0
M  END
$$$$
MOL0117
     RDKit          3D

 11 12  0  0  1  0  0  0  0  0999 V2000
   -1.0512   14.6756   -1.0797 C   0  0  0  0  0  0  0  0  0  0  0  0
    0.1429   15.1287    0.8153 C   0  0  0  0  0  0  0  0  0  0  0  0
   -2.2081   14.6921   -0.3436 C   0  0  0  0  0  0  0  0  0  0  0  0
   -2.1020   14.9347    1.0176 C   0  0  0  0  0  0  0  0  0  0  0  0
   -4.3657   14.8734    0.5698 C   0  0  0  0  0  0  0  0  0  0  0  0
   -3.6300   14.4388   -0.7251 C   0  0  1  0  0  0  0  0  0  0  0  0
   -5.5681   14.9597   -2.2396 C   0  0  0  0  0  0  0  0  0  0  0  0
   -4.0982   15.2094   -1.9493 C   0  0  0  0  0  0  0  0  0  0  0  0
    0.1548   14.8993   -0.5187 N   0  0  0  0  0  0  0  0  0  0  0  0
   -0.9302   15.1582    1.6349 N   0  0  0  0  0  0  0  0  0  0  0  0
   -3.3663   14.9074    1.6247 N   0  0  0  0  0  0  0  0  0  0  0  0
  1  3  2  0
  1  9  1  0
  2  9  2  0
  2 10  1  0
  3  4  1  0
  3  6  1  0
  4 10  2  0
  4 11  1  0
  5  6  1  0
  5 11  1  0
  6  8  1  6
  7  8  1  0
M  END
$$$$
MOL0175
     RDKit          3D

 10 11  0  0  0  0  0  0  0  0999 V2000
   -0.3735   14.2351   -0.5525 C   0  0  0  0  0  0  0  0  0  0  0  0
   -0.2965   14.4870    0.8151 C   0  0  0  0  0  0  0  0  0  0  0  0
   -2.6552   14.8793   -0.4356 C   0  0  0  0  0  0  0  0  0  0  0  0
   -1.5901   14.4349   -1.1950 C   0  0  0  0  0  0  0  0  0  0  0  0
   -2.4953   15.1053    0.9284 C   0  0  0  0  0  0  0  0  0  0  0  0
   -4.0628   15.1504   -0.8489 C   0  0  0  0  0  0  0  0  0  0  0  0
   -4.6541   15.7723    0.4339 C   0  0  0  0  0  0  0  0  0  0  0  0
   -1.7271   14.1731   -2.6536 C   0  0  0  0  0  0  0  0  0  0  0  0
   -1.3316   14.9177    1.5779 N   0  0  0  0  0  0  0  0  0  0  0  0
   -3.6983   15.5393    1.5015 N   0  0  0  0  0  0  0  0  0  0  0  0
  1  2  2  0
  1  4  1  0
  2  9  1  0
  3  4  2  0
  3  5  1  0
  3  6  1  0
  4  8  1  0
  5  9  2  0
  5 10  1  0
  6  7  1  0
  7 10  1  0
M  END
$$$$
MOL0032
     RDKit          3D

 10 11  0  0  1  0  0  0  0  0999 V2000
   -1.4240   14.4963   -0.7680 C   0  0  0  0  0  0  0  0  0  0  0  0
   -0.1041   14.7879    1.0745 C   0  0  0  0  0  0  0  0  0  0  0  0
   -2.5352   14.7178    0.0043 C   0  0  0  0  0  0  0  0  0  0  0  0
   -2.3418   14.9687    1.3544 C   0  0  0  0  0  0  0  0  0  0  0  0
   -4.5998   15.2696    0.9818 C   0  0  0  0  0  0  0  0  0  0  0  0
   -3.9923   14.6929   -0.3240 C   0  0  1  0  0  0  0  0  0  0  0  0
   -4.3727   15.5036   -1.5528 C   0  0  0  0  0  0  0  0  0  0  0  0
   -0.1781   14.5313   -0.2526 N   0  0  0  0  0  0  0  0  0  0  0  0
   -1.1275   15.0102    1.9273 N   0  0  0  0  0  0  0  0  0  0  0  0
   -3.5707   15.1618    2.0025 N   0  0  0  0  0  0  0  0  0  0  0  0
  1  3  2  0
  1  8  1  0
  2  8  2  0
  2  9  1  0
  3  4  1  0
  3  6  1  0
  4  9  2  0
  4 10  1  0
  5  6  1  0
  5 10  1  0
  6  7  1  6
M  END
$$$$
MOL0070
     RDKit          3D

 10 11  0  0  0  0  0  0  0  0999 V2000
   -0.7081   14.7262   -1.0517 C   0  0  0  0  0  0  0  0  0  0  0  0
    0.0414   14.9217    1.0772 C   0  0  0  0  0  0  0  0  0  0  0  0
   -2.0245   14.8657   -0.6418 C   0  0  0  0  0  0  0  0  0  0  0  0
   -2.2269   15.0048    0.7339 C   0  0  0  0  0  0  0  0  0  0  0  0
   -4.3953   15.2236   -1.0659 C   0  0  0  0  0  0  0  0  0  0  0  0
   -4.6346   14.7357    0.3599 C   0  0  0  0  0  0  0  0  0  0  0  0
    0.3509   14.7523   -0.2182 N   0  0  0  0  0  0  0  0  0  0  0  0
   -1.1906   15.0508    1.6056 N   0  0  0  0  0  0  0  0  0  0  0  0
   -3.0802   14.8275   -1.5343 N   0  0  0  0  0  0  0  0  0  0  0  0
   -3.5270   15.1045    1.2214 N   0  0  0  0  0  0  0  0  0  0  0  0
  1  3  2  0
  1  7  1  0
  2  7  2  0
  2  8  1  0
  3  4  1  0
  3  9  1  0
  4  8  2  0
  4 10  1  0
  5  6  1  0
  5  9  1  0
  6 10  1  0
M  END
$$$$
MOL0067
     RDKit          3D

 12 13  0  0  0  0  0  0  0  0999 V2000
   -0.5751   14.5917   -0.8061 C   0  0  0  0  0  0  0  0  0  0  0  0
    0.2316   14.8560    1.2936 C   0  0  0  0  0  0  0  0  0  0  0  0
   -1.8709   14.8425   -0.3827 C   0  0  0  0  0  0  0  0  0  0  0  0
   -2.0325   15.0738    0.9847 C   0  0  0  0  0  0  0  0  0  0  0  0
   -4.4538   14.9000    0.6864 C   0  0  0  0  0  0  0  0  0  0  0  0
   -4.2612   15.2633   -0.8006 C   0  0  0  0  0  0  0  0  0  0  0  0
   -5.3211   14.5393   -1.6431 C   0  0  0  0  0  0  0  0  0  0  0  0
   -4.3913   16.7788   -1.0240 C   0  0  0  0  0  0  0  0  0  0  0  0
    0.5006   14.5928    0.0052 N   0  0  0  0  0  0  0  0  0  0  0  0
   -0.9774   15.0999    1.8338 N   0  0  0  0  0  0  0  0  0  0  0  0
   -2.9417   14.8298   -1.2569 N   0  0  0  0  0  0  0  0  0  0  0  0
   -3.3111   15.2992    1.4868 N   0  0  0  0  0  0  0  0  0  0  0  0
  1  3  2  0
  1  9  1  0
  2  9  2  0
  2 10  1  0
  3  4  1  0
  3 11  1  0
  4 10  2  0
  4 12  1  0
  5  6  1  0
  5 12  1  0
  6  7  1  0
  6  8  1  0
  6 11  1  0
M  END
$$$$
MOL0185
     RDKit          3D

 11 12  0  0  0  0  0  0  0  0999 V2000
   -1.4569   14.4362   -0.9881 C   0  0  0  0  0  0  0  0  0  0  0  0
   -0.1342   14.8408    0.8296 C   0  0  0  0  0  0  0  0  0  0  0  0
   -2.5515   14.8345   -0.2659 C   0  0  0  0  0  0  0  0  0  0  0  0
   -2.3524   15.2364    1.0424 C   0  0  0  0  0  0  0  0  0  0  0  0
   -3.9884   14.9188   -0.6482 C   0  0  0  0  0  0  0  0  0  0  0  0
   -4.6457   15.4477    0.6669 C   0  0  0  0  0  0  0  0  0  0  0  0
   -5.6598   14.4423    1.2195 C   0  0  0  0  0  0  0  0  0  0  0  0
   -5.3161   16.8056    0.4410 C   0  0  0  0  0  0  0  0  0  0  0  0
   -0.2174   14.4292   -0.4573 N   0  0  0  0  0  0  0  0  0  0  0  0
   -1.1433   15.2518    1.6276 N   0  0  0  0  0  0  0  0  0  0  0  0
   -3.5621   15.6093    1.6366 N   0  0  0  0  0  0  0  0  0  0  0  0
  1  3  2  0
  1  9  1  0
  2  9  2  0
  2 10  1  0
  3  4  1  0
  3  5  1  0
  4 10  2  0
  4 11  1  0
  5  6  1  0
  6  7  1  0
  6  8  1  0
  6 11  1  0
M  END
$$$$
MOL0200
     RDKit          3D

 12 13  0  0  1  0  0  0  0  0999 V2000
   -0.8624   14.3794   -0.7820 C   0  0  0  0  0  0  0  0  0  0  0  0
   -0.0856   14.6791    1.3245 C   0  0  0  0  0  0  0  0  0  0  0  0
   -2.1737   14.5378   -0.3623 C   0  0  0  0  0  0  0  0  0  0  0  0
   -2.3584   14.7436    1.0070 C   0  0  0  0  0  0  0  0  0  0  0  0
   -4.5473   14.8815   -0.7751 C   0  0  0  0  0  0  0  0  0  0  0  0
   -4.7769   14.4550    0.6801 C   0  0  2  0  0  0  0  0  0  0  0  0
   -6.0611   15.0659    1.2305 C   0  0  0  0  0  0  0  0  0  0  0  0
    0.2068   14.4478    0.0348 N   0  0  0  0  0  0  0  0  0  0  0  0
   -1.3111   14.8326    1.8614 N   0  0  0  0  0  0  0  0  0  0  0  0
   -3.2406   14.4520   -1.2375 N   0  0  0  0  0  0  0  0  0  0  0  0
   -3.6521   14.8641    1.5085 N   0  0  0  0  0  0  0  0  0  0  0  0
   -6.2298   14.6331    2.5686 O   0  0  0  0  0  0  0  0  0  0  0  0
  1  3  2  0
  1  8  1  0
  2  8  2  0
  2  9  1  0
  3  4  1  0
  3 10  1  0
  4  9  2  0
  4 11  1  0
  5  6  1  0
  5 10  1  0
  6  7  1  1
  6 11  1  0
  7 12  1  0
M  END
$$$$
MOL0216
     RDKit          3D

 18 20  0  0  0  0  0  0  0  0999 V2000
   -1.9541   15.0369   -3.2493 C   0  0  0  0  0  0  0  0  0  0  0  0
   -1.3093   12.7871   -2.6490 C   0  0  0  0  0  0  0  0  0  0  0  0
   -2.0483   14.6524   -4.5868 C   0  0  0  0  0  0  0  0  0  0  0  0
   -1.4035   12.4025   -3.9865 C   0  0  0  0  0  0  0  0  0  0  0  0
   -0.1792   14.7302    0.9620 C   0  0  0  0  0  0  0  0  0  0  0  0
   -1.5847   14.1040   -2.2804 C   0  0  0  0  0  0  0  0  0  0  0  0
   -2.5518   15.0020   -0.1952 C   0  0  0  0  0  0  0  0  0  0  0  0
   -1.7729   13.3354   -4.9554 C   0  0  0  0  0  0  0  0  0  0  0  0
   -1.4878   14.5007   -0.8974 C   0  0  0  0  0  0  0  0  0  0  0  0
   -2.3451   15.3631    1.1255 C   0  0  0  0  0  0  0  0  0  0  0  0
   -3.9539   15.2733   -0.6105 C   0  0  0  0  0  0  0  0  0  0  0  0
   -4.6012   15.6861    0.7297 C   0  0  0  0  0  0  0  0  0  0  0  0
   -0.2716   14.3486   -0.3344 N   0  0  0  0  0  0  0  0  0  0  0  0
   -1.1577   15.2395    1.7408 N   0  0  0  0  0  0  0  0  0  0  0  0
   -3.5250   15.8629    1.6899 N   0  0  0  0  0  0  0  0  0  0  0  0
   -1.8689   12.9447   -6.3169 N   0  0  0  0  0  0  0  0  0  0  0  0
   -2.2031   13.7991   -7.1727 O   0  0  0  0  0  0  0  0  0  0  0  0
   -1.6168   11.7551   -6.6274 O   0  0  0  0  0  0  0  0  0  0  0  0
  1  3  2  0
  1  6  1  0
  2  4  1  0
  2  6  2  0
  3  8  1  0
  4  8  2  0
  5 13  2  0
  5 14  1  0
  6  9  1  0
  7  9  2  0
  7 10  1  0
  7 11  1  0
  8 16  1  0
  9 13  1  0
 10 14  2  0
 10 15  1  0
 11 12  1  0
 12 15  1  0
 16 17  1  0
 16 18  2  0
M  CHG  2  16   1  17  -1
M  END
$$$$
MOL0198
     RDKit          3D

 13 14  0  0  1  0  0  0  0  0999 V2000
   -1.0783   14.4731   -0.9405 C   0  0  0  0  0  0  0  0  0  0  0  0
   -0.0578   14.8160    1.0527 C   0  0  0  0  0  0  0  0  0  0  0  0
   -2.3295   14.6713   -0.3778 C   0  0  0  0  0  0  0  0  0  0  0  0
   -2.3454   14.9903    0.9821 C   0  0  0  0  0  0  0  0  0  0  0  0
   -4.7267   15.5261    0.7828 C   0  0  0  0  0  0  0  0  0  0  0  0
   -4.7688   14.5907   -0.4321 C   0  0  1  0  0  0  0  0  0  0  0  0
   -5.8757   15.0010   -1.3962 C   0  0  0  0  0  0  0  0  0  0  0  0
   -7.2459   14.9092   -0.7474 C   0  0  0  0  0  0  0  0  0  0  0  0
    0.0797   14.5341   -0.2531 N   0  0  0  0  0  0  0  0  0  0  0  0
   -1.2071   15.0478    1.7145 N   0  0  0  0  0  0  0  0  0  0  0  0
   -3.4898   14.6064   -1.1279 N   0  0  0  0  0  0  0  0  0  0  0  0
   -3.5645   15.2484    1.6037 N   0  0  0  0  0  0  0  0  0  0  0  0
   -7.4607   13.5691   -0.3263 O   0  0  0  0  0  0  0  0  0  0  0  0
  1  3  2  0
  1  9  1  0
  2  9  2  0
  2 10  1  0
  3  4  1  0
  3 11  1  0
  4 10  2  0
  4 12  1  0
  5  6  1  0
  5 12  1  0
  6  7  1  6
  6 11  1  0
  7  8  1  0
  8 13  1  0
M  END
$$$$
MOL0044
     RDKit          3D

 11 12  0  0  1  0  0  0  0  0999 V2000
   -1.2004   14.8269   -0.8264 C   0  0  0  0  0  0  0  0  0  0  0  0
   -0.1496   14.8689    1.1795 C   0  0  0  0  0  0  0  0  0  0  0  0
   -2.4443   14.8981   -0.2197 C   0  0  0  0  0  0  0  0  0  0  0  0
   -2.4452   14.9193    1.1768 C   0  0  0  0  0  0  0  0  0  0  0  0
   -4.8500   15.2558   -0.2695 C   0  0  0  0  0  0  0  0  0  0  0  0
   -4.9034   14.6750    1.1484 C   0  0  1  0  0  0  0  0  0  0  0  0
   -5.1932   13.1741    1.1510 C   0  0  0  0  0  0  0  0  0  0  0  0
   -0.0314   14.8148   -0.1566 N   0  0  0  0  0  0  0  0  0  0  0  0
   -1.2929   14.9204    1.8890 N   0  0  0  0  0  0  0  0  0  0  0  0
   -3.6188   14.8979   -0.9495 N   0  0  0  0  0  0  0  0  0  0  0  0
   -3.6586   14.9348    1.8571 N   0  0  0  0  0  0  0  0  0  0  0  0
  1  3  2  0
  1  8  1  0
  2  8  2  0
  2  9  1  0
  3  4  1  0
  3 10  1  0
  4  9  2  0
  4 11  1  0
  5  6  1  0
  5 10  1  0
  6  7  1  6
  6 11  1  0
M  END
$$$$
MOL0064
     RDKit          3D

 12 13  0  0  1  0  0  0  0  0999 V2000
   -1.1585   14.9694   -0.9715 C   0  0  0  0  0  0  0  0  0  0  0  0
   -0.2024   14.9491    1.0823 C   0  0  0  0  0  0  0  0  0  0  0  0
   -2.4296   14.9082   -0.4228 C   0  0  0  0  0  0  0  0  0  0  0  0
   -2.4929   14.8330    0.9707 C   0  0  0  0  0  0  0  0  0  0  0  0
   -4.8535   15.0711   -0.5649 C   0  0  0  0  0  0  0  0  0  0  0  0
   -4.8978   14.3585    0.7928 C   0  0  2  0  0  0  0  0  0  0  0  0
   -7.4120   14.3230    0.7823 C   0  0  0  0  0  0  0  0  0  0  0  0
   -6.1682   14.7193    1.5558 C   0  0  0  0  0  0  0  0  0  0  0  0
   -0.0223   14.9953   -0.2470 N   0  0  0  0  0  0  0  0  0  0  0  0
   -1.3770   14.8696    1.7372 N   0  0  0  0  0  0  0  0  0  0  0  0
   -3.5675   14.8763   -1.2072 N   0  0  0  0  0  0  0  0  0  0  0  0
   -3.7351   14.7210    1.5908 N   0  0  0  0  0  0  0  0  0  0  0  0
  1  3  2  0
  1  9  1  0
  2  9  2  0
  2 10  1  0
  3  4  1  0
  3 11  1  0
  4 10  2  0
  4 12  1  0
  5  6  1  0
  5 11  1  0
  6  8  1  1
  6 12  1  0
  7  8  1  0
M  END
$$$$
MOL0094
     RDKit          3D

 11 12  0  0  1  0  0  0  0  0999 V2000
   -0.7895   14.6840   -0.6420 C   0  0  0  0  0  0  0  0  0  0  0  0
    0.2131   14.8778    1.4023 C   0  0  0  0  0  0  0  0  0  0  0  0
   -2.0137   14.8512   -0.0473 C   0  0  0  0  0  0  0  0  0  0  0  0
   -2.0433   15.0242    1.3283 C   0  0  0  0  0  0  0  0  0  0  0  0
   -4.2174   15.3284    0.6149 C   0  0  0  0  0  0  0  0  0  0  0  0
   -3.3987   14.8339   -0.6066 C   0  0  1  0  0  0  0  0  0  0  0  0
   -3.5913   15.7120   -1.8329 C   0  0  0  0  0  0  0  0  0  0  0  0
    0.3570   14.6987    0.0683 N   0  0  0  0  0  0  0  0  0  0  0  0
   -0.9373   15.0418    2.0905 N   0  0  0  0  0  0  0  0  0  0  0  0
   -3.3633   15.1694    1.7802 N   0  0  0  0  0  0  0  0  0  0  0  0
   -3.0882   15.0270   -2.9678 O   0  0  0  0  0  0  0  0  0  0  0  0
  1  3  2  0
  1  8  1  0
  2  8  2  0
  2  9  1  0
  3  4  1  0
  3  6  1  0
  4  9  2  0
  4 10  1  0
  5  6  1  0
  5 10  1  0
  6  7  1  6
  7 11  1  0
M  END
$$$$
MOL0014
     RDKit          3D

 11 12  0  0  0  0  0  0  0  0999 V2000
   -0.7815   14.7809   -0.9582 C   0  0  0  0  0  0  0  0  0  0  0  0
    0.2752   14.8501    1.0462 C   0  0  0  0  0  0  0  0  0  0  0  0
   -2.0044   14.9232   -0.3300 C   0  0  0  0  0  0  0  0  0  0  0  0
   -2.0153   15.0239    1.0522 C   0  0  0  0  0  0  0  0  0  0  0  0
   -4.4297   15.1120   -0.4559 C   0  0  0  0  0  0  0  0  0  0  0  0
   -4.4221   15.5240    1.0020 C   0  0  0  0  0  0  0  0  0  0  0  0
    0.3868   14.7470   -0.2903 N   0  0  0  0  0  0  0  0  0  0  0  0
   -0.8633   14.9814    1.7602 N   0  0  0  0  0  0  0  0  0  0  0  0
   -3.2014   14.9200   -1.0516 N   0  0  0  0  0  0  0  0  0  0  0  0
   -3.2288   15.1228    1.7139 N   0  0  0  0  0  0  0  0  0  0  0  0
   -5.4877   15.0360   -1.0822 O   0  0  0  0  0  0  0  0  0  0  0  0
  1  3  2  0
  1  7  1  0
  2  7  2  0
  2  8  1  0
  3  4  1  0
  3  9  1  0
  4  8  2  0
  4 10  1  0
  5  6  1  0
  5  9  1  0
  5 11  2  0
  6 10  1  0
M  END
$$$$
MOL0042
     RDKit          3D

 12 13  0  0  1  0  0  0  0  0999 V2000
   -0.7030   14.6831   -0.7131 C   0  0  0  0  0  0  0  0  0  0  0  0
    0.1938   14.8016    1.3638 C   0  0  0  0  0  0  0  0  0  0  0  0
   -1.9748   14.9301   -0.2200 C   0  0  0  0  0  0  0  0  0  0  0  0
   -2.0659   15.1477    1.1568 C   0  0  0  0  0  0  0  0  0  0  0  0
   -4.3850   15.8697    0.8441 C   0  0  0  0  0  0  0  0  0  0  0  0
   -4.4038   15.0325   -0.4410 C   0  0  1  0  0  0  0  0  0  0  0  0
   -5.4428   14.7707   -2.7151 C   0  0  0  0  0  0  0  0  0  0  0  0
   -5.4088   15.5932   -1.4404 C   0  0  0  0  0  0  0  0  0  0  0  0
    0.4045   14.6080    0.0518 N   0  0  0  0  0  0  0  0  0  0  0  0
   -0.9814   15.0671    1.9648 N   0  0  0  0  0  0  0  0  0  0  0  0
   -3.0804   15.0061   -1.0477 N   0  0  0  0  0  0  0  0  0  0  0  0
   -3.3058   15.4475    1.7153 N   0  0  0  0  0  0  0  0  0  0  0  0
  1  3  2  0
  1  9  1  0
  2  9  2  0
  2 10  1  0
  3  4  1  0
  3 11  1  0
  4 10  2  0
  4 12  1  0
  5  6  1  0
  5 12  1  0
  6  8  1  6
  6 11  1  0
  7  8  1  0
M  END
$$$$
MOL0023
     RDKit          3D

 10 11  0  0  1  0  0  0  0  0999 V2000
   -1.5756   14.6341   -0.8947 C   0  0  0  0  0  0  0  0  0  0  0  0
   -0.2819   14.8080    0.9802 C   0  0  0  0  0  0  0  0  0  0  0  0
   -2.6887   14.8848   -0.1354 C   0  0  0  0  0  0  0  0  0  0  0  0
   -2.5141   15.0913    1.2216 C   0  0  0  0  0  0  0  0  0  0  0  0
   -4.1260   14.9623   -0.5128 C   0  0  0  0  0  0  0  0  0  0  0  0
   -4.7928   15.3445    0.8368 C   0  0  2  0  0  0  0  0  0  0  0  0
   -5.4360   16.7257    0.7874 C   0  0  0  0  0  0  0  0  0  0  0  0
   -0.3406   14.5912   -0.3549 N   0  0  0  0  0  0  0  0  0  0  0  0
   -1.3110   15.0592    1.8183 N   0  0  0  0  0  0  0  0  0  0  0  0
   -3.7423   15.3305    1.8476 N   0  0  0  0  0  0  0  0  0  0  0  0
  1  3  2  0
  1  8  1  0
  2  8  2  0
  2  9  1  0
  3  4  1  0
  3  5  1  0
  4  9  2  0
  4 10  1  0
  5  6  1  0
  6  7  1  6
  6 10  1  0
M  END
$$$$
MOL0046
     RDKit          3D

  9 10  0  0  0  0  0  0  0  0999 V2000
   -0.1236   14.7637   -0.2708 C   0  0  0  0  0  0  0  0  0  0  0  0
   -1.3872   14.6574   -0.8409 C   0  0  0  0  0  0  0  0  0  0  0  0
   -0.0315   15.0558    1.0879 C   0  0  0  0  0  0  0  0  0  0  0  0
   -2.4826   14.8543   -0.0225 C   0  0  0  0  0  0  0  0  0  0  0  0
   -2.3042   15.1406    1.3279 C   0  0  0  0  0  0  0  0  0  0  0  0
   -3.9354   14.7772   -0.3528 C   0  0  0  0  0  0  0  0  0  0  0  0
   -4.5838   15.2693    0.9583 C   0  0  0  0  0  0  0  0  0  0  0  0
   -1.0945   15.2464    1.9080 N   0  0  0  0  0  0  0  0  0  0  0  0
   -3.5414   15.2909    1.9686 N   0  0  0  0  0  0  0  0  0  0  0  0
  1  2  2  0
  1  3  1  0
  2  4  1  0
  3  8  2  0
  4  5  2  0
  4  6  1  0
  5  8  1  0
  5  9  1  0
  6  7  1  0
  7  9  1  0
M  END
$$$$
MOL0157
     RDKit          3D

 12 13  0  0  1  0  0  0  0  0999 V2000
   -0.7391   14.5262   -0.8913 C   0  0  0  0  0  0  0  0  0  0  0  0
    0.2447   14.9085    1.1127 C   0  0  0  0  0  0  0  0  0  0  0  0
   -2.0034   14.5795   -0.3247 C   0  0  0  0  0  0  0  0  0  0  0  0
   -2.0489   14.8532    1.0448 C   0  0  0  0  0  0  0  0  0  0  0  0
   -4.4732   15.1518    0.8589 C   0  0  0  0  0  0  0  0  0  0  0  0
   -4.4228   14.2551   -0.3840 C   0  0  1  0  0  0  0  0  0  0  0  0
   -5.5664   14.5814   -1.3372 C   0  0  0  0  0  0  0  0  0  0  0  0
    0.4062   14.6826   -0.2007 N   0  0  0  0  0  0  0  0  0  0  0  0
   -0.9209   15.0024    1.7797 N   0  0  0  0  0  0  0  0  0  0  0  0
   -3.1525   14.4209   -1.0777 N   0  0  0  0  0  0  0  0  0  0  0  0
   -3.2861   14.9674    1.6721 N   0  0  0  0  0  0  0  0  0  0  0  0
   -5.7574   13.4803   -2.2075 O   0  0  0  0  0  0  0  0  0  0  0  0
  1  3  2  0
  1  8  1  0
  2  8  2  0
  2  9  1  0
  3  4  1  0
  3 10  1  0
  4  9  2  0
  4 11  1  0
  5  6  1  0
  5 11  1  0
  6  7  1  6
  6 10  1  0
  7 12  1  0
M  END
$$$$
MOL0025
     RDKit          3D

 11 12  0  0  1  0  0  0  0  0999 V2000
   -1.2107   14.3670   -1.0779 C   0  0  0  0  0  0  0  0  0  0  0  0
   -0.0421   14.6781    0.8378 C   0  0  0  0  0  0  0  0  0  0  0  0
   -2.4172   14.5124   -0.4109 C   0  0  0  0  0  0  0  0  0  0  0  0
   -2.3317   14.7893    0.9556 C   0  0  0  0  0  0  0  0  0  0  0  0
   -4.7344   15.2629    0.9643 C   0  0  0  0  0  0  0  0  0  0  0  0
   -4.8500   14.3640   -0.2732 C   0  0  1  0  0  0  0  0  0  0  0  0
   -6.0413   14.7719   -1.1320 C   0  0  0  0  0  0  0  0  0  0  0  0
   -0.0031   14.4400   -0.4833 N   0  0  0  0  0  0  0  0  0  0  0  0
   -1.1399   14.8568    1.5963 N   0  0  0  0  0  0  0  0  0  0  0  0
   -3.6321   14.4373   -1.0679 N   0  0  0  0  0  0  0  0  0  0  0  0
   -3.5030   14.9936    1.6805 N   0  0  0  0  0  0  0  0  0  0  0  0
  1  3  2  0
  1  8  1  0
  2  8  2  0
  2  9  1  0
  3  4  1  0
  3 10  1  0
  4  9  2  0
  4 11  1  0
  5  6  1  0
  5 11  1  0
  6  7  1  6
  6 10  1  0
M  END
$$$$
MOL0071
     RDKit          3D

 10 11  0  0  0  0  0  0  0  0999 V2000
   -1.3328   14.8679   -0.9191 C   0  0  0  0  0  0  0  0  0  0  0  0
   -2.4645   15.1470   -0.1994 C   0  0  0  0  0  0  0  0  0  0  0  0
   -2.3374   15.3169    1.1689 C   0  0  0  0  0  0  0  0  0  0  0  0
   -0.1132   14.9331    1.0125 C   0  0  0  0  0  0  0  0  0  0  0  0
   -3.8737   15.3404   -0.6336 C   0  0  0  0  0  0  0  0  0  0  0  0
   -4.6016   15.4742    0.7220 C   0  0  0  0  0  0  0  0  0  0  0  0
   -0.1253   14.7504   -0.3296 N   0  0  0  0  0  0  0  0  0  0  0  0
   -1.1631   15.2165    1.8131 N   0  0  0  0  0  0  0  0  0  0  0  0
   -3.5798   15.6046    1.7470 N   0  0  0  0  0  0  0  0  0  0  0  0
    1.7587   14.7552    1.9573 I   0  0  0  0  0  0  0  0  0  0  0  0
  1  2  2  0
  1  7  1  0
  2  3  1  0
  2  5  1  0
  3  8  2  0
  3  9  1  0
  4  7  2  0
  4  8  1  0
  4 10  1  0
  5  6  1  0
  6  9  1  0
M  END
$$$$
MOL0136
     RDKit          3D

 14 15  0  0  1  0  0  0  0  0999 V2000
   -0.7151   14.5876   -0.8092 C   0  0  0  0  0  0  0  0  0  0  0  0
   -0.0521   14.7177    1.3527 C   0  0  0  0  0  0  0  0  0  0  0  0
   -2.0508   14.6361   -0.4428 C   0  0  0  0  0  0  0  0  0  0  0  0
   -2.3083   14.6962    0.9290 C   0  0  0  0  0  0  0  0  0  0  0  0
   -4.4190   14.8963   -0.9396 C   0  0  0  0  0  0  0  0  0  0  0  0
   -4.6896   14.3172    0.4545 C   0  0  2  0  0  0  0  0  0  0  0  0
   -6.0295   14.8040    0.9956 C   0  0  0  0  0  0  0  0  0  0  0  0
    0.3107   14.6299    0.0632 N   0  0  0  0  0  0  0  0  0  0  0  0
   -1.3072   14.7543    1.8395 N   0  0  0  0  0  0  0  0  0  0  0  0
   -3.0707   14.5823   -1.3748 N   0  0  0  0  0  0  0  0  0  0  0  0
   -3.6281   14.7000    1.3739 N   0  0  0  0  0  0  0  0  0  0  0  0
   -6.2524   14.2851    2.2134 F   0  0  0  0  0  0  0  0  0  0  0  0
   -7.0234   14.4268    0.1760 F   0  0  0  0  0  0  0  0  0  0  0  0
   -6.0308   16.1431    1.0896 F   0  0  0  0  0  0  0  0  0  0  0  0
  1  3  2  0
  1  8  1  0
  2  8  2  0
  2  9  1  0
  3  4  1  0
  3 10  1  0
  4  9  2  0
  4 11  1  0
  5  6  1  0
  5 10  1  0
  6  7  1  1
  6 11  1  0
  7 12  1  0
  7 13  1  0
  7 14  1  0
M  END
$$$$
MOL0030
     RDKit          3D

 10 11  0  0  0  0  0  0  0  0999 V2000
   -1.1353   14.6597   -0.9592 C   0  0  0  0  0  0  0  0  0  0  0  0
   -2.3158   14.8649   -0.2952 C   0  0  0  0  0  0  0  0  0  0  0  0
   -2.2810   14.9191    1.0880 C   0  0  0  0  0  0  0  0  0  0  0  0
   -0.0456   14.5727    1.0477 C   0  0  0  0  0  0  0  0  0  0  0  0
   -3.6966   15.0801   -0.8042 C   0  0  0  0  0  0  0  0  0  0  0  0
   -4.5134   15.0906    0.5066 C   0  0  0  0  0  0  0  0  0  0  0  0
    0.0328   14.5048   -0.3029 N   0  0  0  0  0  0  0  0  0  0  0  0
   -1.1498   14.7762    1.7979 N   0  0  0  0  0  0  0  0  0  0  0  0
   -3.5629   15.1438    1.6044 N   0  0  0  0  0  0  0  0  0  0  0  0
    1.5940   14.3581    1.9981 Br  0  0  0  0  0  0  0  0  0  0  0  0
  1  2  2  0
  1  7  1  0
  2  3  1  0
  2  5  1  0
  3  8  2  0
  3  9  1  0
  4  7  2  0
  4  8  1  0
  4 10  1  0
  5  6  1  0
  6  9  1  0
M  END
$$$$
MOL0156
     RDKit          3D

 12 13  0  0  1  0  0  0  0  0999 V2000
   -1.2055   14.6957   -0.9177 C   0  0  0  0  0  0  0  0  0  0  0  0
   -0.1039   14.8620    1.0548 C   0  0  0  0  0  0  0  0  0  0  0  0
   -2.4313   14.6420   -0.2728 C   0  0  0  0  0  0  0  0  0  0  0  0
   -2.3955   14.7462    1.1198 C   0  0  0  0  0  0  0  0  0  0  0  0
   -4.8320   14.9919    1.1195 C   0  0  0  0  0  0  0  0  0  0  0  0
   -4.8411   14.2541   -0.2253 C   0  0  1  0  0  0  0  0  0  0  0  0
   -6.0511   14.6586   -1.0592 C   0  0  0  0  0  0  0  0  0  0  0  0
   -0.0204   14.8017   -0.2841 N   0  0  0  0  0  0  0  0  0  0  0  0
   -1.2264   14.8393    1.7980 N   0  0  0  0  0  0  0  0  0  0  0  0
   -3.6225   14.5413   -0.9687 N   0  0  0  0  0  0  0  0  0  0  0  0
   -3.5928   14.7463    1.8307 N   0  0  0  0  0  0  0  0  0  0  0  0
   -6.2728   13.6659   -2.0451 O   0  0  0  0  0  0  0  0  0  0  0  0
  1  3  2  0
  1  8  1  0
  2  8  2  0
  2  9  1  0
  3  4  1  0
  3 10  1  0
  4  9  2  0
  4 11  1  0
  5  6  1  0
  5 11  1  0
  6  7  1  6
  6 10  1  0
  7 12  1  0
M  END
$$$$
MOL0029
     RDKit          3D

 11 12  0  0  1  0  0  0  0  0999 V2000
   -0.7403   14.8407   -0.8238 C   0  0  0  0  0  0  0  0  0  0  0  0
    0.0326   14.9380    1.3030 C   0  0  0  0  0  0  0  0  0  0  0  0
   -2.0505   14.7306   -0.3839 C   0  0  0  0  0  0  0  0  0  0  0  0
   -2.2364   14.7705    1.0004 C   0  0  0  0  0  0  0  0  0  0  0  0
   -4.6496   14.9641    0.6255 C   0  0  0  0  0  0  0  0  0  0  0  0
   -4.4267   14.2900   -0.7337 C   0  0  1  0  0  0  0  0  0  0  0  0
   -5.5010   14.7075   -1.7308 C   0  0  0  0  0  0  0  0  0  0  0  0
    0.3254   14.9422   -0.0071 N   0  0  0  0  0  0  0  0  0  0  0  0
   -1.1914   14.8567    1.8577 N   0  0  0  0  0  0  0  0  0  0  0  0
   -3.1144   14.6371   -1.2627 N   0  0  0  0  0  0  0  0  0  0  0  0
   -3.5295   14.7119    1.5122 N   0  0  0  0  0  0  0  0  0  0  0  0
  1  3  2  0
  1  8  1  0
  2  8  2  0
  2  9  1  0
  3  4  1  0
  3 10  1  0
  4  9  2  0
  4 11  1  0
  5  6  1  0
  5 11  1  0
  6  7  1  6
  6 10  1  0
M  END
$$$$
MOL0149
     RDKit          3D

 10 11  0  0  0  0  0  0  0  0999 V2000
   -1.0749   14.5868   -0.7903 C   0  0  0  0  0  0  0  0  0  0  0  0
    0.0864   14.5612   -0.0262 C   0  0  0  0  0  0  0  0  0  0  0  0
   -2.2601   14.8977   -0.1521 C   0  0  0  0  0  0  0  0  0  0  0  0
   -2.2696   15.1650    1.2138 C   0  0  0  0  0  0  0  0  0  0  0  0
   -0.0087   14.8433    1.3344 C   0  0  0  0  0  0  0  0  0  0  0  0
   -3.6422   14.9722   -0.7089 C   0  0  0  0  0  0  0  0  0  0  0  0
   -4.4362   15.5304    0.4910 C   0  0  0  0  0  0  0  0  0  0  0  0
   -1.1629   15.1446    1.9792 N   0  0  0  0  0  0  0  0  0  0  0  0
   -3.5706   15.4441    1.6534 N   0  0  0  0  0  0  0  0  0  0  0  0
    1.5808   14.8054    2.3764 Br  0  0  0  0  0  0  0  0  0  0  0  0
  1  2  2  0
  1  3  1  0
  2  5  1  0
  3  4  2  0
  3  6  1  0
  4  8  1  0
  4  9  1  0
  5  8  2  0
  5 10  1  0
  6  7  1  0
  7  9  1  0
M  END
$$$$
MOL0073
     RDKit          3D

 11 12  0  0  1  0  0  0  0  0999 V2000
   -1.1500   14.6073   -0.9257 C   0  0  0  0  0  0  0  0  0  0  0  0
    0.1131   14.8322    0.9637 C   0  0  0  0  0  0  0  0  0  0  0  0
   -2.2823   14.5988   -0.1533 C   0  0  0  0  0  0  0  0  0  0  0  0
   -2.1318   14.7121    1.2176 C   0  0  0  0  0  0  0  0  0  0  0  0
   -3.7154   14.4650   -0.5298 C   0  0  0  0  0  0  0  0  0  0  0  0
   -4.4245   14.6108    0.8444 C   0  0  2  0  0  0  0  0  0  0  0  0
   -5.2901   15.8639    0.9132 C   0  0  0  0  0  0  0  0  0  0  0  0
    0.0794   14.7264   -0.3852 N   0  0  0  0  0  0  0  0  0  0  0  0
   -0.9348   14.8318    1.8158 N   0  0  0  0  0  0  0  0  0  0  0  0
   -3.3769   14.6846    1.8557 N   0  0  0  0  0  0  0  0  0  0  0  0
   -5.9069   15.9177    2.1873 O   0  0  0  0  0  0  0  0  0  0  0  0
  1  3  2  0
  1  8  1  0
  2  8  2  0
  2  9  1  0
  3  4  1  0
  3  5  1  0
  4  9  2  0
  4 10  1  0
  5  6  1  0
  6  7  1  6
  6 10  1  0
  7 11  1  0
M  END
$$$$
MOL0074
     RDKit          3D

 10 11  0  0  0  0  0  0  0  0999 V2000
   -1.2046   14.5303   -1.1819 C   0  0  0  0  0  0  0  0  0  0  0  0
   -0.0170   14.4025   -0.4704 C   0  0  0  0  0  0  0  0  0  0  0  0
   -2.3351   14.9136   -0.4865 C   0  0  0  0  0  0  0  0  0  0  0  0
   -2.2665   15.1510    0.8833 C   0  0  0  0  0  0  0  0  0  0  0  0
   -0.0328   14.6611    0.8981 C   0  0  0  0  0  0  0  0  0  0  0  0
   -3.7302   15.1019   -0.9802 C   0  0  0  0  0  0  0  0  0  0  0  0
   -4.4286   15.6908    0.2637 C   0  0  0  0  0  0  0  0  0  0  0  0
   -1.1327   15.0324    1.5987 N   0  0  0  0  0  0  0  0  0  0  0  0
   -3.5232   15.5156    1.3850 N   0  0  0  0  0  0  0  0  0  0  0  0
    1.3987   14.5198    1.8363 Cl  0  0  0  0  0  0  0  0  0  0  0  0
  1  2  2  0
  1  3  1  0
  2  5  1  0
  3  4  2  0
  3  6  1  0
  4  8  1  0
  4  9  1  0
  5  8  2  0
  5 10  1  0
  6  7  1  0
  7  9  1  0
M  END
$$$$
