MOL9999
  -OEChem-08062404123D

 36 38  0     0  0  0  0  0  0999 V2000
    0.4631   -7.6732  -16.6508 C   0  0  0  0  0  0  0  0  0  0  0  0
    0.0210   -8.2099  -15.4589 C   0  0  0  0  0  0  0  0  0  0  0  0
    1.7843   -7.9192  -16.9632 C   0  0  0  0  0  0  0  0  0  0  0  0
    2.0699   -9.1034  -15.0435 C   0  0  0  0  0  0  0  0  0  0  0  0
   -3.8957   -8.8244  -16.0195 C   0  0  0  0  0  0  0  0  0  0  0  0
   -2.9907   -9.7505  -15.2057 C   0  0  0  0  0  0  0  0  0  0  0  0
   -3.0905   -7.7608  -16.7665 C   0  0  0  0  0  0  0  0  0  0  0  0
    1.7828   -6.5191  -20.5363 C   0  0  0  0  0  0  0  0  0  0  0  0
    0.5752   -7.2828  -20.0823 C   0  0  0  0  0  0  0  0  0  0  0  0
   -2.0406   -8.9636  -14.2987 C   0  0  0  0  0  0  0  0  0  0  0  0
   -2.1465   -7.0195  -15.8211 C   0  0  0  0  0  0  0  0  0  0  0  0
    1.4671   -6.6198  -19.0692 C   0  0  0  0  0  0  0  0  0  0  0  0
    0.8002   -8.9329  -14.6279 N   0  0  0  0  0  0  0  0  0  0  0  0
    2.6196   -8.6327  -16.1796 N   0  0  0  0  0  0  0  0  0  0  0  0
   -1.3063   -7.9843  -15.1074 N   0  0  0  0  0  0  0  0  0  0  0  0
    2.9149   -9.8552  -14.1983 N   0  0  0  0  0  0  0  0  0  0  0  0
    2.2776   -7.3855  -18.1791 N   0  0  0  0  0  0  0  0  0  0  0  0
   -0.1855   -7.0957  -17.2995 H   0  0  0  0  0  0  0  0  0  0  0  0
   -4.4832   -9.4166  -16.7364 H   0  0  0  0  0  0  0  0  0  0  0  0
   -4.6192   -8.3349  -15.3492 H   0  0  0  0  0  0  0  0  0  0  0  0
   -3.6057  -10.4216  -14.5967 H   0  0  0  0  0  0  0  0  0  0  0  0
   -2.4064  -10.3817  -15.8857 H   0  0  0  0  0  0  0  0  0  0  0  0
   -2.5118   -8.2350  -17.5641 H   0  0  0  0  0  0  0  0  0  0  0  0
   -3.7726   -7.0500  -17.2382 H   0  0  0  0  0  0  0  0  0  0  0  0
    2.6212   -7.0852  -20.9233 H   0  0  0  0  0  0  0  0  0  0  0  0
    1.6223   -5.5650  -21.0232 H   0  0  0  0  0  0  0  0  0  0  0  0
   -0.3985   -6.8429  -20.2592 H   0  0  0  0  0  0  0  0  0  0  0  0
    0.6031   -8.3623  -20.1663 H   0  0  0  0  0  0  0  0  0  0  0  0
   -2.6107   -8.4533  -13.5219 H   0  0  0  0  0  0  0  0  0  0  0  0
   -1.3517   -9.6614  -13.8229 H   0  0  0  0  0  0  0  0  0  0  0  0
   -1.5294   -6.3334  -16.4063 H   0  0  0  0  0  0  0  0  0  0  0  0
   -2.7272   -6.4312  -15.1057 H   0  0  0  0  0  0  0  0  0  0  0  0
    1.0821   -5.7263  -18.5900 H   0  0  0  0  0  0  0  0  0  0  0  0
    2.5620  -10.1775  -13.3210 H   0  0  0  0  0  0  0  0  0  0  0  0
    3.8777   -9.9607  -14.4431 H   0  0  0  0  0  0  0  0  0  0  0  0
    3.2362   -7.5713  -18.3930 H   0  0  0  0  0  0  0  0  0  0  0  0
  1  2  2  0  0  0  0
  1  3  1  0  0  0  0
  2 13  1  0  0  0  0
  2 15  1  0  0  0  0
  3 14  2  0  0  0  0
  3 17  1  0  0  0  0
  4 13  2  0  0  0  0
  4 14  1  0  0  0  0
  4 16  1  0  0  0  0
  5  6  1  0  0  0  0
  5  7  1  0  0  0  0
  6 10  1  0  0  0  0
  7 11  1  0  0  0  0
  8  9  1  0  0  0  0
  8 12  1  0  0  0  0
  9 12  1  0  0  0  0
 10 15  1  0  0  0  0
 11 15  1  0  0  0  0
 12 17  1  0  0  0  0
  1 18  1  0  0  0  0
  5 19  1  0  0  0  0
  5 20  1  0  0  0  0
  6 21  1  0  0  0  0
  6 22  1  0  0  0  0
  7 23  1  0  0  0  0
  7 24  1  0  0  0  0
  8 25  1  0  0  0  0
  8 26  1  0  0  0  0
  9 27  1  0  0  0  0
  9 28  1  0  0  0  0
 10 29  1  0  0  0  0
 10 30  1  0  0  0  0
 11 31  1  0  0  0  0
 11 32  1  0  0  0  0
 12 33  1  0  0  0  0
 16 34  1  0  0  0  0
 16 35  1  0  0  0  0
 17 36  1  0  0  0  0
M  END
> <HYBRID receptor title>
27_FRAG(A) > 95F(A-200)

> <HYBRID receptor filename>
data/docking/pairs/27_frag.oedu

> <HYBRID Chemgauss4 score>
-10.624513

> <HYBRID receptor title>
27_FRAG(A) > 95F(A-200)

> <HYBRID receptor filename>
data/docking/pairs/27_frag.oedu

> <Dock Type>
Hybrid

$$$$
MOL0031
  -OEChem-08212416293D

 42 43  0     0  0  0  0  0  0999 V2000
    0.8372   -7.7898  -17.5768 C   0  0  0  0  0  0  0  0  0  0  0  0
    2.2099   -7.7011  -17.4688 C   0  0  0  0  0  0  0  0  0  0  0  0
    0.2471   -8.8161  -16.8682 C   0  0  0  0  0  0  0  0  0  0  0  0
    2.2676   -9.5036  -16.0845 C   0  0  0  0  0  0  0  0  0  0  0  0
   -1.9894   -8.2585  -15.9613 C   0  0  0  0  0  0  0  0  0  0  0  0
   -1.6872  -10.2049  -17.4833 C   0  0  0  0  0  0  0  0  0  0  0  0
   -3.4235   -8.1305  -16.4804 C   0  0  0  0  0  0  0  0  0  0  0  0
   -3.1318  -10.0103  -17.9496 C   0  0  0  0  0  0  0  0  0  0  0  0
    2.9587   -6.6286  -18.1894 C   0  0  0  0  0  0  0  0  0  0  0  0
    0.1537   -7.1391  -19.8994 C   0  0  0  0  0  0  0  0  0  0  0  0
    0.0525   -6.8340  -18.4061 C   0  0  0  0  0  0  0  0  0  0  0  0
   -5.3475   -9.3012  -17.3309 C   0  0  0  0  0  0  0  0  0  0  0  0
   -6.0280  -10.6572  -17.2912 C   0  0  0  0  0  0  0  0  0  0  0  0
    2.9594   -8.5443  -16.7287 N   0  0  0  0  0  0  0  0  0  0  0  0
    0.9345   -9.6949  -16.1092 N   0  0  0  0  0  0  0  0  0  0  0  0
   -1.1447   -8.9554  -16.9354 N   0  0  0  0  0  0  0  0  0  0  0  0
   -3.9605   -9.4328  -16.8866 N   0  0  0  0  0  0  0  0  0  0  0  0
    3.0202  -10.4052  -15.3008 N   0  0  0  0  0  0  0  0  0  0  0  0
   -7.3789  -10.5214  -17.7137 O   0  0  0  0  0  0  0  0  0  0  0  0
   -1.5925   -7.2547  -15.7654 H   0  0  0  0  0  0  0  0  0  0  0  0
   -1.9872   -8.8077  -15.0103 H   0  0  0  0  0  0  0  0  0  0  0  0
   -1.6474  -10.9911  -16.7176 H   0  0  0  0  0  0  0  0  0  0  0  0
   -1.0811  -10.5390  -18.3344 H   0  0  0  0  0  0  0  0  0  0  0  0
   -4.0389   -7.7097  -15.6756 H   0  0  0  0  0  0  0  0  0  0  0  0
   -3.4498   -7.4157  -17.3141 H   0  0  0  0  0  0  0  0  0  0  0  0
   -3.1456   -9.3780  -18.8476 H   0  0  0  0  0  0  0  0  0  0  0  0
   -3.5296  -10.9907  -18.2397 H   0  0  0  0  0  0  0  0  0  0  0  0
    3.0543   -5.7271  -17.5713 H   0  0  0  0  0  0  0  0  0  0  0  0
    2.4389   -6.3317  -19.1091 H   0  0  0  0  0  0  0  0  0  0  0  0
    3.9635   -6.9787  -18.4537 H   0  0  0  0  0  0  0  0  0  0  0  0
   -0.1756   -8.1615  -20.1143 H   0  0  0  0  0  0  0  0  0  0  0  0
    1.1859   -7.0379  -20.2509 H   0  0  0  0  0  0  0  0  0  0  0  0
   -0.4708   -6.4525  -20.4793 H   0  0  0  0  0  0  0  0  0  0  0  0
    0.3911   -5.8001  -18.2283 H   0  0  0  0  0  0  0  0  0  0  0  0
   -1.0094   -6.8462  -18.1083 H   0  0  0  0  0  0  0  0  0  0  0  0
   -5.8558   -8.5963  -16.6661 H   0  0  0  0  0  0  0  0  0  0  0  0
   -5.3424   -8.8948  -18.3469 H   0  0  0  0  0  0  0  0  0  0  0  0
   -5.5263  -11.3802  -17.9427 H   0  0  0  0  0  0  0  0  0  0  0  0
   -6.0318  -11.0439  -16.2676 H   0  0  0  0  0  0  0  0  0  0  0  0
    4.0165  -10.3316  -15.2980 H   0  0  0  0  0  0  0  0  0  0  0  0
    2.5526  -11.1637  -14.8490 H   0  0  0  0  0  0  0  0  0  0  0  0
   -7.7745  -11.4068  -17.6735 H   0  0  0  0  0  0  0  0  0  0  0  0
  1  2  1  0  0  0  0
  1  3  2  0  0  0  0
  1 11  1  0  0  0  0
  2  9  1  0  0  0  0
  2 14  2  0  0  0  0
  3 15  1  0  0  0  0
  3 16  1  0  0  0  0
  4 14  1  0  0  0  0
  4 15  2  0  0  0  0
  4 18  1  0  0  0  0
  5  7  1  0  0  0  0
  5 16  1  0  0  0  0
  6  8  1  0  0  0  0
  6 16  1  0  0  0  0
  7 17  1  0  0  0  0
  8 17  1  0  0  0  0
 10 11  1  0  0  0  0
 12 13  1  0  0  0  0
 12 17  1  0  0  0  0
 13 19  1  0  0  0  0
  5 20  1  0  0  0  0
  5 21  1  0  0  0  0
  6 22  1  0  0  0  0
  6 23  1  0  0  0  0
  7 24  1  0  0  0  0
  7 25  1  0  0  0  0
  8 26  1  0  0  0  0
  8 27  1  0  0  0  0
  9 28  1  0  0  0  0
  9 29  1  0  0  0  0
  9 30  1  0  0  0  0
 10 31  1  0  0  0  0
 10 32  1  0  0  0  0
 10 33  1  0  0  0  0
 11 34  1  0  0  0  0
 11 35  1  0  0  0  0
 12 36  1  0  0  0  0
 12 37  1  0  0  0  0
 13 38  1  0  0  0  0
 13 39  1  0  0  0  0
 18 40  1  0  0  0  0
 18 41  1  0  0  0  0
 19 42  1  0  0  0  0
M  END
> <HYBRID receptor title>
27_FRAG(A) > 95F(A-200)

> <HYBRID receptor filename>
data/docking/pairs/27_frag.oedu

> <HYBRID Chemgauss4 score>
-15.145243

> <HYBRID receptor title>
27_FRAG(A) > 95F(A-200)

> <HYBRID receptor filename>
data/docking/pairs/27_frag.oedu

> <Dock Type>
Hybrid

$$$$
MOL0023
  -OEChem-08212416293D

 45 46  0     0  0  0  0  0  0999 V2000
    0.9493   -7.4954  -17.3660 C   0  0  0  0  0  0  0  0  0  0  0  0
    2.3272   -7.4238  -17.3787 C   0  0  0  0  0  0  0  0  0  0  0  0
    0.4081   -8.4461  -16.5252 C   0  0  0  0  0  0  0  0  0  0  0  0
    2.4786   -9.1023  -15.8528 C   0  0  0  0  0  0  0  0  0  0  0  0
   -4.2053  -10.1615  -15.6802 C   0  0  0  0  0  0  0  0  0  0  0  0
   -3.0815   -9.1109  -17.6511 C   0  0  0  0  0  0  0  0  0  0  0  0
   -3.1261   -7.9368  -15.4180 C   0  0  0  0  0  0  0  0  0  0  0  0
   -1.6227   -9.4953  -17.4048 C   0  0  0  0  0  0  0  0  0  0  0  0
   -1.6714   -8.3475  -15.1892 C   0  0  0  0  0  0  0  0  0  0  0  0
   -3.8719   -8.8698  -16.3679 C   0  0  0  0  0  0  0  0  0  0  0  0
    3.0261   -6.4311  -18.2483 C   0  0  0  0  0  0  0  0  0  0  0  0
    0.0828   -7.0325  -19.6724 C   0  0  0  0  0  0  0  0  0  0  0  0
   -4.2292  -13.2405  -16.3017 C   0  0  0  0  0  0  0  0  0  0  0  0
    0.1097   -6.5992  -18.2079 C   0  0  0  0  0  0  0  0  0  0  0  0
   -5.3105  -12.2269  -15.9933 C   0  0  0  0  0  0  0  0  0  0  0  0
    3.1257   -8.2147  -16.6321 N   0  0  0  0  0  0  0  0  0  0  0  0
    1.1458   -9.2698  -15.7517 N   0  0  0  0  0  0  0  0  0  0  0  0
   -0.9863   -8.5644  -16.4660 N   0  0  0  0  0  0  0  0  0  0  0  0
    3.2830   -9.9478  -15.0582 N   0  0  0  0  0  0  0  0  0  0  0  0
   -3.8714  -10.4342  -14.5355 O   0  0  0  0  0  0  0  0  0  0  0  0
   -4.9232  -10.9556  -16.5247 O   0  0  0  0  0  0  0  0  0  0  0  0
   -3.1026   -8.1940  -18.2547 H   0  0  0  0  0  0  0  0  0  0  0  0
   -3.5601   -9.8925  -18.2539 H   0  0  0  0  0  0  0  0  0  0  0  0
   -3.6401   -7.8892  -14.4501 H   0  0  0  0  0  0  0  0  0  0  0  0
   -3.1427   -6.9205  -15.8328 H   0  0  0  0  0  0  0  0  0  0  0  0
   -1.5676  -10.5171  -17.0077 H   0  0  0  0  0  0  0  0  0  0  0  0
   -1.0921   -9.4889  -18.3654 H   0  0  0  0  0  0  0  0  0  0  0  0
   -1.1718   -7.5525  -14.6208 H   0  0  0  0  0  0  0  0  0  0  0  0
   -1.6247   -9.2592  -14.5806 H   0  0  0  0  0  0  0  0  0  0  0  0
   -4.8354   -8.4116  -16.6230 H   0  0  0  0  0  0  0  0  0  0  0  0
    3.1833   -5.4821  -17.7205 H   0  0  0  0  0  0  0  0  0  0  0  0
    2.4352   -6.2040  -19.1447 H   0  0  0  0  0  0  0  0  0  0  0  0
    4.0012   -6.8213  -18.5626 H   0  0  0  0  0  0  0  0  0  0  0  0
   -0.2753   -8.0631  -19.7703 H   0  0  0  0  0  0  0  0  0  0  0  0
    1.0834   -6.9812  -20.1146 H   0  0  0  0  0  0  0  0  0  0  0  0
   -0.5796   -6.3862  -20.2565 H   0  0  0  0  0  0  0  0  0  0  0  0
   -4.0858  -13.3424  -17.3811 H   0  0  0  0  0  0  0  0  0  0  0  0
   -3.2797  -12.9426  -15.8453 H   0  0  0  0  0  0  0  0  0  0  0  0
   -4.4887  -14.2194  -15.8858 H   0  0  0  0  0  0  0  0  0  0  0  0
    0.4741   -5.5605  -18.1486 H   0  0  0  0  0  0  0  0  0  0  0  0
   -0.9238   -6.5659  -17.8243 H   0  0  0  0  0  0  0  0  0  0  0  0
   -5.4489  -12.1298  -14.9125 H   0  0  0  0  0  0  0  0  0  0  0  0
   -6.2590  -12.5255  -16.4507 H   0  0  0  0  0  0  0  0  0  0  0  0
    4.2769   -9.8931  -15.1433 H   0  0  0  0  0  0  0  0  0  0  0  0
    2.8457  -10.6560  -14.5056 H   0  0  0  0  0  0  0  0  0  0  0  0
  1  2  1  0  0  0  0
  1  3  2  0  0  0  0
  1 14  1  0  0  0  0
  2 11  1  0  0  0  0
  2 16  2  0  0  0  0
  3 17  1  0  0  0  0
  3 18  1  0  0  0  0
  4 16  1  0  0  0  0
  4 17  2  0  0  0  0
  4 19  1  0  0  0  0
  5 10  1  0  0  0  0
  5 20  2  0  0  0  0
  5 21  1  0  0  0  0
  6  8  1  0  0  0  0
  6 10  1  0  0  0  0
  7  9  1  0  0  0  0
  7 10  1  0  0  0  0
  8 18  1  0  0  0  0
  9 18  1  0  0  0  0
 12 14  1  0  0  0  0
 13 15  1  0  0  0  0
 15 21  1  0  0  0  0
  6 22  1  0  0  0  0
  6 23  1  0  0  0  0
  7 24  1  0  0  0  0
  7 25  1  0  0  0  0
  8 26  1  0  0  0  0
  8 27  1  0  0  0  0
  9 28  1  0  0  0  0
  9 29  1  0  0  0  0
 10 30  1  0  0  0  0
 11 31  1  0  0  0  0
 11 32  1  0  0  0  0
 11 33  1  0  0  0  0
 12 34  1  0  0  0  0
 12 35  1  0  0  0  0
 12 36  1  0  0  0  0
 13 37  1  0  0  0  0
 13 38  1  0  0  0  0
 13 39  1  0  0  0  0
 14 40  1  0  0  0  0
 14 41  1  0  0  0  0
 15 42  1  0  0  0  0
 15 43  1  0  0  0  0
 19 44  1  0  0  0  0
 19 45  1  0  0  0  0
M  END
> <HYBRID receptor title>
27_FRAG(A) > 95F(A-200)

> <HYBRID receptor filename>
data/docking/pairs/27_frag.oedu

> <HYBRID Chemgauss4 score>
-15.080849

> <HYBRID receptor title>
27_FRAG(A) > 95F(A-200)

> <HYBRID receptor filename>
data/docking/pairs/27_frag.oedu

> <Dock Type>
Hybrid

$$$$
MOL0030
  -OEChem-08212416293D

 42 43  0     0  0  0  0  0  0999 V2000
    1.1591   -7.6760  -17.5449 C   0  0  0  0  0  0  0  0  0  0  0  0
    2.5313   -7.7695  -17.4344 C   0  0  0  0  0  0  0  0  0  0  0  0
    0.4346   -8.4941  -16.7025 C   0  0  0  0  0  0  0  0  0  0  0  0
    2.3430   -9.3423  -15.8036 C   0  0  0  0  0  0  0  0  0  0  0  0
   -4.3855   -9.7820  -16.9207 C   0  0  0  0  0  0  0  0  0  0  0  0
   -2.9745   -8.1343  -18.1637 C   0  0  0  0  0  0  0  0  0  0  0  0
   -3.1249   -8.0590  -15.6461 C   0  0  0  0  0  0  0  0  0  0  0  0
   -1.5920   -8.7761  -18.0486 C   0  0  0  0  0  0  0  0  0  0  0  0
   -1.7473   -8.7160  -15.5584 C   0  0  0  0  0  0  0  0  0  0  0  0
   -3.8607   -8.3761  -16.9449 C   0  0  0  0  0  0  0  0  0  0  0  0
    0.5117   -6.7481  -18.5128 C   0  0  0  0  0  0  0  0  0  0  0  0
    3.4193   -6.9305  -18.2933 C   0  0  0  0  0  0  0  0  0  0  0  0
   -3.3885  -12.6716  -16.1970 C   0  0  0  0  0  0  0  0  0  0  0  0
   -4.4342  -11.7478  -15.6096 C   0  0  0  0  0  0  0  0  0  0  0  0
    3.1591   -8.5950  -16.5713 N   0  0  0  0  0  0  0  0  0  0  0  0
    0.9960   -9.3430  -15.8164 N   0  0  0  0  0  0  0  0  0  0  0  0
   -0.9637   -8.4415  -16.7655 N   0  0  0  0  0  0  0  0  0  0  0  0
    2.9659  -10.2192  -14.8890 N   0  0  0  0  0  0  0  0  0  0  0  0
   -5.0550  -10.2788  -17.8157 O   0  0  0  0  0  0  0  0  0  0  0  0
   -3.9993  -10.3930  -15.7644 O   0  0  0  0  0  0  0  0  0  0  0  0
   -2.8458   -7.0519  -18.2959 H   0  0  0  0  0  0  0  0  0  0  0  0
   -3.4653   -8.5035  -19.0727 H   0  0  0  0  0  0  0  0  0  0  0  0
   -3.7251   -8.3716  -14.7828 H   0  0  0  0  0  0  0  0  0  0  0  0
   -3.0008   -6.9712  -15.5649 H   0  0  0  0  0  0  0  0  0  0  0  0
   -1.6768   -9.8661  -18.1464 H   0  0  0  0  0  0  0  0  0  0  0  0
   -0.9707   -8.4208  -18.8806 H   0  0  0  0  0  0  0  0  0  0  0  0
   -1.2310   -8.3225  -14.6734 H   0  0  0  0  0  0  0  0  0  0  0  0
   -1.8506   -9.7993  -15.4183 H   0  0  0  0  0  0  0  0  0  0  0  0
   -4.7447   -7.7300  -17.0126 H   0  0  0  0  0  0  0  0  0  0  0  0
    0.3442   -7.2339  -19.4840 H   0  0  0  0  0  0  0  0  0  0  0  0
    1.1397   -5.8669  -18.7046 H   0  0  0  0  0  0  0  0  0  0  0  0
   -0.4569   -6.4045  -18.1268 H   0  0  0  0  0  0  0  0  0  0  0  0
    3.6482   -5.9721  -17.8108 H   0  0  0  0  0  0  0  0  0  0  0  0
    2.9391   -6.6987  -19.2524 H   0  0  0  0  0  0  0  0  0  0  0  0
    4.3612   -7.4549  -18.4923 H   0  0  0  0  0  0  0  0  0  0  0  0
   -3.2443  -12.4708  -17.2623 H   0  0  0  0  0  0  0  0  0  0  0  0
   -2.4309  -12.5479  -15.6809 H   0  0  0  0  0  0  0  0  0  0  0  0
   -3.6846  -13.7179  -16.0716 H   0  0  0  0  0  0  0  0  0  0  0  0
   -4.5735  -11.9537  -14.5443 H   0  0  0  0  0  0  0  0  0  0  0  0
   -5.3907  -11.8718  -16.1268 H   0  0  0  0  0  0  0  0  0  0  0  0
    3.9625  -10.2890  -14.8849 H   0  0  0  0  0  0  0  0  0  0  0  0
    2.3987  -10.8298  -14.3380 H   0  0  0  0  0  0  0  0  0  0  0  0
  1  2  1  0  0  0  0
  1  3  2  0  0  0  0
  1 11  1  0  0  0  0
  2 12  1  0  0  0  0
  2 15  2  0  0  0  0
  3 16  1  0  0  0  0
  3 17  1  0  0  0  0
  4 15  1  0  0  0  0
  4 16  2  0  0  0  0
  4 18  1  0  0  0  0
  5 10  1  0  0  0  0
  5 19  2  0  0  0  0
  5 20  1  0  0  0  0
  6  8  1  0  0  0  0
  6 10  1  0  0  0  0
  7  9  1  0  0  0  0
  7 10  1  0  0  0  0
  8 17  1  0  0  0  0
  9 17  1  0  0  0  0
 13 14  1  0  0  0  0
 14 20  1  0  0  0  0
  6 21  1  0  0  0  0
  6 22  1  0  0  0  0
  7 23  1  0  0  0  0
  7 24  1  0  0  0  0
  8 25  1  0  0  0  0
  8 26  1  0  0  0  0
  9 27  1  0  0  0  0
  9 28  1  0  0  0  0
 10 29  1  0  0  0  0
 11 30  1  0  0  0  0
 11 31  1  0  0  0  0
 11 32  1  0  0  0  0
 12 33  1  0  0  0  0
 12 34  1  0  0  0  0
 12 35  1  0  0  0  0
 13 36  1  0  0  0  0
 13 37  1  0  0  0  0
 13 38  1  0  0  0  0
 14 39  1  0  0  0  0
 14 40  1  0  0  0  0
 18 41  1  0  0  0  0
 18 42  1  0  0  0  0
M  END
> <HYBRID receptor title>
27_FRAG(A) > 95F(A-200)

> <HYBRID receptor filename>
data/docking/pairs/27_frag.oedu

> <HYBRID Chemgauss4 score>
-15.013508

> <HYBRID receptor title>
27_FRAG(A) > 95F(A-200)

> <HYBRID receptor filename>
data/docking/pairs/27_frag.oedu

> <Dock Type>
Hybrid

$$$$
MOL0019
  -OEChem-08212416293D

 36 37  0     0  0  0  0  0  0999 V2000
    0.8708   -7.7176  -17.5853 C   0  0  0  0  0  0  0  0  0  0  0  0
    2.2506   -7.7206  -17.5794 C   0  0  0  0  0  0  0  0  0  0  0  0
    0.2678   -8.7070  -16.8361 C   0  0  0  0  0  0  0  0  0  0  0  0
    2.2906   -9.5316  -16.2055 C   0  0  0  0  0  0  0  0  0  0  0  0
   -3.2360   -7.6436  -16.1507 C   0  0  0  0  0  0  0  0  0  0  0  0
   -3.2563   -9.6121  -17.7072 C   0  0  0  0  0  0  0  0  0  0  0  0
   -1.8062   -7.9876  -15.7408 C   0  0  0  0  0  0  0  0  0  0  0  0
   -1.8235   -9.9483  -17.2972 C   0  0  0  0  0  0  0  0  0  0  0  0
   -3.9943   -8.8745  -16.6075 C   0  0  0  0  0  0  0  0  0  0  0  0
    3.0137   -6.6956  -18.3522 C   0  0  0  0  0  0  0  0  0  0  0  0
    0.0621   -7.0086  -19.8498 C   0  0  0  0  0  0  0  0  0  0  0  0
    0.0921   -6.7068  -18.3527 C   0  0  0  0  0  0  0  0  0  0  0  0
    2.9951   -8.6162  -16.8981 N   0  0  0  0  0  0  0  0  0  0  0  0
    0.9495   -9.6342  -16.1315 N   0  0  0  0  0  0  0  0  0  0  0  0
   -1.1315   -8.7535  -16.8000 N   0  0  0  0  0  0  0  0  0  0  0  0
    3.0375  -10.4860  -15.4811 N   0  0  0  0  0  0  0  0  0  0  0  0
   -4.1851   -9.7071  -15.5524 F   0  0  0  0  0  0  0  0  0  0  0  0
   -5.2255   -8.5160  -17.0459 F   0  0  0  0  0  0  0  0  0  0  0  0
   -3.7565   -7.1860  -15.3016 H   0  0  0  0  0  0  0  0  0  0  0  0
   -3.2273   -6.8952  -16.9526 H   0  0  0  0  0  0  0  0  0  0  0  0
   -3.2517   -9.0049  -18.6207 H   0  0  0  0  0  0  0  0  0  0  0  0
   -3.7898  -10.5380  -17.9503 H   0  0  0  0  0  0  0  0  0  0  0  0
   -1.2631   -7.0557  -15.5401 H   0  0  0  0  0  0  0  0  0  0  0  0
   -1.8161   -8.5721  -14.8117 H   0  0  0  0  0  0  0  0  0  0  0  0
   -1.8339  -10.7214  -16.5179 H   0  0  0  0  0  0  0  0  0  0  0  0
   -1.2961  -10.3615  -18.1661 H   0  0  0  0  0  0  0  0  0  0  0  0
    3.2144   -5.8063  -17.7417 H   0  0  0  0  0  0  0  0  0  0  0  0
    2.4481   -6.3592  -19.2304 H   0  0  0  0  0  0  0  0  0  0  0  0
    3.9706   -7.1098  -18.6908 H   0  0  0  0  0  0  0  0  0  0  0  0
   -0.3495   -8.0055  -20.0410 H   0  0  0  0  0  0  0  0  0  0  0  0
    1.0699   -6.9737  -20.2768 H   0  0  0  0  0  0  0  0  0  0  0  0
   -0.5566   -6.2785  -20.3808 H   0  0  0  0  0  0  0  0  0  0  0  0
    0.5110   -5.6987  -18.1991 H   0  0  0  0  0  0  0  0  0  0  0  0
   -0.9432   -6.6505  -17.9769 H   0  0  0  0  0  0  0  0  0  0  0  0
    4.0340  -10.4786  -15.5522 H   0  0  0  0  0  0  0  0  0  0  0  0
    2.5553  -11.2147  -14.9968 H   0  0  0  0  0  0  0  0  0  0  0  0
  1  2  1  0  0  0  0
  1  3  2  0  0  0  0
  1 12  1  0  0  0  0
  2 10  1  0  0  0  0
  2 13  2  0  0  0  0
  3 14  1  0  0  0  0
  3 15  1  0  0  0  0
  4 13  1  0  0  0  0
  4 14  2  0  0  0  0
  4 16  1  0  0  0  0
  5  7  1  0  0  0  0
  5  9  1  0  0  0  0
  6  8  1  0  0  0  0
  6  9  1  0  0  0  0
  7 15  1  0  0  0  0
  8 15  1  0  0  0  0
  9 17  1  0  0  0  0
  9 18  1  0  0  0  0
 11 12  1  0  0  0  0
  5 19  1  0  0  0  0
  5 20  1  0  0  0  0
  6 21  1  0  0  0  0
  6 22  1  0  0  0  0
  7 23  1  0  0  0  0
  7 24  1  0  0  0  0
  8 25  1  0  0  0  0
  8 26  1  0  0  0  0
 10 27  1  0  0  0  0
 10 28  1  0  0  0  0
 10 29  1  0  0  0  0
 11 30  1  0  0  0  0
 11 31  1  0  0  0  0
 11 32  1  0  0  0  0
 12 33  1  0  0  0  0
 12 34  1  0  0  0  0
 16 35  1  0  0  0  0
 16 36  1  0  0  0  0
M  END
> <HYBRID receptor title>
27_FRAG(A) > 95F(A-200)

> <HYBRID receptor filename>
data/docking/pairs/27_frag.oedu

> <HYBRID Chemgauss4 score>
-14.705704

> <HYBRID receptor title>
27_FRAG(A) > 95F(A-200)

> <HYBRID receptor filename>
data/docking/pairs/27_frag.oedu

> <Dock Type>
Hybrid

$$$$
MOL0011
  -OEChem-08212416293D

 39 40  0     0  0  0  0  0  0999 V2000
    0.8047   -7.4341  -17.4380 C   0  0  0  0  0  0  0  0  0  0  0  0
    2.1782   -7.5653  -17.4517 C   0  0  0  0  0  0  0  0  0  0  0  0
    0.1446   -8.1619  -16.4693 C   0  0  0  0  0  0  0  0  0  0  0  0
    2.1085   -9.0042  -15.6929 C   0  0  0  0  0  0  0  0  0  0  0  0
   -3.7462   -9.5559  -15.2701 C   0  0  0  0  0  0  0  0  0  0  0  0
   -2.7109   -9.1131  -14.2380 C   0  0  0  0  0  0  0  0  0  0  0  0
   -3.5373   -9.0816  -16.7104 C   0  0  0  0  0  0  0  0  0  0  0  0
   -2.3765   -7.6213  -14.2399 C   0  0  0  0  0  0  0  0  0  0  0  0
   -2.0810   -9.0002  -17.1782 C   0  0  0  0  0  0  0  0  0  0  0  0
   -1.8999   -7.0509  -15.5773 C   0  0  0  0  0  0  0  0  0  0  0  0
    3.0000   -6.8235  -18.4540 C   0  0  0  0  0  0  0  0  0  0  0  0
   -0.0199   -7.1963  -19.7934 C   0  0  0  0  0  0  0  0  0  0  0  0
    0.0907   -6.5601  -18.4092 C   0  0  0  0  0  0  0  0  0  0  0  0
    2.8653   -8.3445  -16.5907 N   0  0  0  0  0  0  0  0  0  0  0  0
    0.7672   -8.9603  -15.5773 N   0  0  0  0  0  0  0  0  0  0  0  0
   -1.2469   -8.0673  -16.4030 N   0  0  0  0  0  0  0  0  0  0  0  0
    2.7943   -9.8305  -14.7762 N   0  0  0  0  0  0  0  0  0  0  0  0
   -3.8666  -10.6628  -15.2443 H   0  0  0  0  0  0  0  0  0  0  0  0
   -4.7338   -9.1645  -14.9408 H   0  0  0  0  0  0  0  0  0  0  0  0
   -3.0336   -9.4199  -13.2349 H   0  0  0  0  0  0  0  0  0  0  0  0
   -1.7763   -9.6588  -14.4243 H   0  0  0  0  0  0  0  0  0  0  0  0
   -4.0665   -9.7756  -17.3829 H   0  0  0  0  0  0  0  0  0  0  0  0
   -4.0257   -8.1042  -16.8533 H   0  0  0  0  0  0  0  0  0  0  0  0
   -3.2613   -7.0715  -13.9071 H   0  0  0  0  0  0  0  0  0  0  0  0
   -1.5985   -7.4298  -13.4956 H   0  0  0  0  0  0  0  0  0  0  0  0
   -1.6311  -10.0118  -17.1556 H   0  0  0  0  0  0  0  0  0  0  0  0
   -2.0580   -8.7104  -18.2467 H   0  0  0  0  0  0  0  0  0  0  0  0
   -2.7523   -6.6228  -16.1171 H   0  0  0  0  0  0  0  0  0  0  0  0
   -1.2163   -6.2149  -15.3906 H   0  0  0  0  0  0  0  0  0  0  0  0
    3.3001   -5.8399  -18.0717 H   0  0  0  0  0  0  0  0  0  0  0  0
    2.4349   -6.6482  -19.3782 H   0  0  0  0  0  0  0  0  0  0  0  0
    3.9039   -7.3929  -18.7003 H   0  0  0  0  0  0  0  0  0  0  0  0
   -0.5242   -8.1673  -19.7400 H   0  0  0  0  0  0  0  0  0  0  0  0
    0.9710   -7.3562  -20.2315 H   0  0  0  0  0  0  0  0  0  0  0  0
   -0.5908   -6.5544  -20.4715 H   0  0  0  0  0  0  0  0  0  0  0  0
    0.6018   -5.5878  -18.5020 H   0  0  0  0  0  0  0  0  0  0  0  0
   -0.9214   -6.3213  -18.0419 H   0  0  0  0  0  0  0  0  0  0  0  0
    3.7844   -9.9334  -14.8617 H   0  0  0  0  0  0  0  0  0  0  0  0
    2.2677  -10.3785  -14.1278 H   0  0  0  0  0  0  0  0  0  0  0  0
  1  2  1  0  0  0  0
  1  3  2  0  0  0  0
  1 13  1  0  0  0  0
  2 11  1  0  0  0  0
  2 14  2  0  0  0  0
  3 15  1  0  0  0  0
  3 16  1  0  0  0  0
  4 14  1  0  0  0  0
  4 15  2  0  0  0  0
  4 17  1  0  0  0  0
  5  6  1  0  0  0  0
  5  7  1  0  0  0  0
  6  8  1  0  0  0  0
  7  9  1  0  0  0  0
  8 10  1  0  0  0  0
  9 16  1  0  0  0  0
 10 16  1  0  0  0  0
 12 13  1  0  0  0  0
  5 18  1  0  0  0  0
  5 19  1  0  0  0  0
  6 20  1  0  0  0  0
  6 21  1  0  0  0  0
  7 22  1  0  0  0  0
  7 23  1  0  0  0  0
  8 24  1  0  0  0  0
  8 25  1  0  0  0  0
  9 26  1  0  0  0  0
  9 27  1  0  0  0  0
 10 28  1  0  0  0  0
 10 29  1  0  0  0  0
 11 30  1  0  0  0  0
 11 31  1  0  0  0  0
 11 32  1  0  0  0  0
 12 33  1  0  0  0  0
 12 34  1  0  0  0  0
 12 35  1  0  0  0  0
 13 36  1  0  0  0  0
 13 37  1  0  0  0  0
 17 38  1  0  0  0  0
 17 39  1  0  0  0  0
M  END
> <HYBRID receptor title>
27_FRAG(A) > 95F(A-200)

> <HYBRID receptor filename>
data/docking/pairs/27_frag.oedu

> <HYBRID Chemgauss4 score>
-14.296682

> <HYBRID receptor title>
27_FRAG(A) > 95F(A-200)

> <HYBRID receptor filename>
data/docking/pairs/27_frag.oedu

> <Dock Type>
Hybrid

$$$$
MOL0018
  -OEChem-08212416293D

 33 34  0     1  0  0  0  0  0999 V2000
    0.5978   -7.8592  -17.5722 C   0  0  0  0  0  0  0  0  0  0  0  0
    1.9631   -7.6625  -17.5388 C   0  0  0  0  0  0  0  0  0  0  0  0
    0.1142   -8.8377  -16.7282 C   0  0  0  0  0  0  0  0  0  0  0  0
    2.2094   -9.2884  -15.9689 C   0  0  0  0  0  0  0  0  0  0  0  0
   -3.3195  -10.1550  -16.9969 C   0  0  0  0  0  0  0  0  0  0  0  0
   -1.9141  -10.0442  -17.5837 C   0  0  0  0  0  0  0  0  0  0  0  0
   -2.1895   -8.3778  -15.8463 C   0  0  0  0  0  0  0  0  0  0  0  0
   -3.5435   -8.7824  -16.4024 C   0  0  0  0  0  0  0  0  0  0  0  0
    2.6009   -6.6284  -18.4072 C   0  0  0  0  0  0  0  0  0  0  0  0
   -0.2218   -7.5250  -19.9177 C   0  0  0  0  0  0  0  0  0  0  0  0
   -0.2879   -7.0609  -18.4639 C   0  0  0  0  0  0  0  0  0  0  0  0
    2.8018   -8.3618  -16.7463 N   0  0  0  0  0  0  0  0  0  0  0  0
    0.8944   -9.5746  -15.9101 N   0  0  0  0  0  0  0  0  0  0  0  0
   -1.2439   -9.0776  -16.7147 N   0  0  3  0  0  0  0  0  0  0  0  0
    3.0573  -10.0404  -15.1269 N   0  0  0  0  0  0  0  0  0  0  0  0
   -3.9306   -7.9133  -17.3638 F   0  0  0  0  0  0  0  0  0  0  0  0
   -4.4969   -8.7995  -15.4529 F   0  0  0  0  0  0  0  0  0  0  0  0
   -4.0594  -10.4017  -17.7636 H   0  0  0  0  0  0  0  0  0  0  0  0
   -3.3540  -10.9230  -16.2160 H   0  0  0  0  0  0  0  0  0  0  0  0
   -1.4052  -11.0134  -17.5869 H   0  0  0  0  0  0  0  0  0  0  0  0
   -1.9552   -9.6592  -18.6093 H   0  0  0  0  0  0  0  0  0  0  0  0
   -2.0561   -7.2921  -15.8977 H   0  0  0  0  0  0  0  0  0  0  0  0
   -2.0644   -8.7099  -14.8103 H   0  0  0  0  0  0  0  0  0  0  0  0
    2.6522   -5.6584  -17.8971 H   0  0  0  0  0  0  0  0  0  0  0  0
    2.0251   -6.4747  -19.3287 H   0  0  0  0  0  0  0  0  0  0  0  0
    3.6181   -6.9346  -18.6781 H   0  0  0  0  0  0  0  0  0  0  0  0
   -0.4814   -8.5857  -20.0033 H   0  0  0  0  0  0  0  0  0  0  0  0
    0.7856   -7.3918  -20.3260 H   0  0  0  0  0  0  0  0  0  0  0  0
   -0.9180   -6.9540  -20.5397 H   0  0  0  0  0  0  0  0  0  0  0  0
   -0.0213   -5.9922  -18.4169 H   0  0  0  0  0  0  0  0  0  0  0  0
   -1.3336   -7.1140  -18.1173 H   0  0  0  0  0  0  0  0  0  0  0  0
    4.0446   -9.8971  -15.1788 H   0  0  0  0  0  0  0  0  0  0  0  0
    2.6657  -10.7740  -14.5731 H   0  0  0  0  0  0  0  0  0  0  0  0
  1  2  1  0  0  0  0
  1  3  2  0  0  0  0
  1 11  1  0  0  0  0
  2  9  1  0  0  0  0
  2 12  2  0  0  0  0
  3 13  1  0  0  0  0
  3 14  1  0  0  0  0
  4 12  1  0  0  0  0
  4 13  2  0  0  0  0
  4 15  1  0  0  0  0
  5  6  1  0  0  0  0
  5  8  1  0  0  0  0
  6 14  1  0  0  0  0
  7  8  1  0  0  0  0
  7 14  1  0  0  0  0
  8 16  1  0  0  0  0
  8 17  1  0  0  0  0
 10 11  1  0  0  0  0
  5 18  1  0  0  0  0
  5 19  1  0  0  0  0
  6 20  1  0  0  0  0
  6 21  1  0  0  0  0
  7 22  1  0  0  0  0
  7 23  1  0  0  0  0
  9 24  1  0  0  0  0
  9 25  1  0  0  0  0
  9 26  1  0  0  0  0
 10 27  1  0  0  0  0
 10 28  1  0  0  0  0
 10 29  1  0  0  0  0
 11 30  1  0  0  0  0
 11 31  1  0  0  0  0
 15 32  1  0  0  0  0
 15 33  1  0  0  0  0
M  END
> <HYBRID receptor title>
27_FRAG(A) > 95F(A-200)

> <HYBRID receptor filename>
data/docking/pairs/27_frag.oedu

> <HYBRID Chemgauss4 score>
-14.242631

> <HYBRID receptor title>
27_FRAG(A) > 95F(A-200)

> <HYBRID receptor filename>
data/docking/pairs/27_frag.oedu

> <Dock Type>
Hybrid

$$$$
MOL0005
  -OEChem-08212416293D

 38 39  0     0  0  0  0  0  0999 V2000
    1.0209   -8.0524  -17.9214 C   0  0  0  0  0  0  0  0  0  0  0  0
    2.3700   -7.8724  -17.6946 C   0  0  0  0  0  0  0  0  0  0  0  0
    0.3943   -8.9689  -17.1022 C   0  0  0  0  0  0  0  0  0  0  0  0
    2.3415   -9.3986  -16.0099 C   0  0  0  0  0  0  0  0  0  0  0  0
   -1.9007   -8.9312  -16.1736 C   0  0  0  0  0  0  0  0  0  0  0  0
   -1.3867  -10.2187  -18.2498 C   0  0  0  0  0  0  0  0  0  0  0  0
   -3.3345   -8.7675  -16.6860 C   0  0  0  0  0  0  0  0  0  0  0  0
   -2.8406  -10.0103  -18.6831 C   0  0  0  0  0  0  0  0  0  0  0  0
    3.1539   -6.9040  -18.5180 C   0  0  0  0  0  0  0  0  0  0  0  0
    0.4002   -5.7876  -18.7989 C   0  0  0  0  0  0  0  0  0  0  0  0
   -4.0294  -11.0906  -16.8581 C   0  0  0  0  0  0  0  0  0  0  0  0
    0.2970   -7.3004  -18.9832 C   0  0  0  0  0  0  0  0  0  0  0  0
    3.0645   -8.5312  -16.7438 N   0  0  0  0  0  0  0  0  0  0  0  0
    1.0263   -9.6629  -16.1328 N   0  0  0  0  0  0  0  0  0  0  0  0
   -0.9771   -9.1927  -17.2820 N   0  0  0  0  0  0  0  0  0  0  0  0
   -3.7849   -9.8417  -17.5748 N   0  0  0  0  0  0  0  0  0  0  0  0
    3.0364  -10.1071  -15.0056 N   0  0  0  0  0  0  0  0  0  0  0  0
   -1.6072   -8.0159  -15.6442 H   0  0  0  0  0  0  0  0  0  0  0  0
   -1.8571   -9.7592  -15.4532 H   0  0  0  0  0  0  0  0  0  0  0  0
   -1.2731  -11.2149  -17.8010 H   0  0  0  0  0  0  0  0  0  0  0  0
   -0.7428  -10.1796  -19.1374 H   0  0  0  0  0  0  0  0  0  0  0  0
   -4.0038   -8.7141  -15.8021 H   0  0  0  0  0  0  0  0  0  0  0  0
   -3.4317   -7.7787  -17.1863 H   0  0  0  0  0  0  0  0  0  0  0  0
   -2.8927   -9.1420  -19.3768 H   0  0  0  0  0  0  0  0  0  0  0  0
   -3.1397  -10.8883  -19.2933 H   0  0  0  0  0  0  0  0  0  0  0  0
    3.1505   -5.9044  -18.0657 H   0  0  0  0  0  0  0  0  0  0  0  0
    2.7262   -6.8014  -19.5233 H   0  0  0  0  0  0  0  0  0  0  0  0
    4.1930   -7.2404  -18.6133 H   0  0  0  0  0  0  0  0  0  0  0  0
    1.4469   -5.4655  -18.7753 H   0  0  0  0  0  0  0  0  0  0  0  0
   -0.0688   -5.4744  -17.8601 H   0  0  0  0  0  0  0  0  0  0  0  0
   -0.0983   -5.2615  -19.6189 H   0  0  0  0  0  0  0  0  0  0  0  0
   -4.3637  -11.8708  -17.5480 H   0  0  0  0  0  0  0  0  0  0  0  0
   -3.1142  -11.4280  -16.3637 H   0  0  0  0  0  0  0  0  0  0  0  0
   -4.7988  -10.9437  -16.0950 H   0  0  0  0  0  0  0  0  0  0  0  0
   -0.7673   -7.5869  -19.0021 H   0  0  0  0  0  0  0  0  0  0  0  0
    0.6867   -7.5681  -19.9797 H   0  0  0  0  0  0  0  0  0  0  0  0
    4.0234   -9.9807  -14.9166 H   0  0  0  0  0  0  0  0  0  0  0  0
    2.5498  -10.7988  -14.4737 H   0  0  0  0  0  0  0  0  0  0  0  0
  1  2  1  0  0  0  0
  1  3  2  0  0  0  0
  1 12  1  0  0  0  0
  2  9  1  0  0  0  0
  2 13  2  0  0  0  0
  3 14  1  0  0  0  0
  3 15  1  0  0  0  0
  4 13  1  0  0  0  0
  4 14  2  0  0  0  0
  4 17  1  0  0  0  0
  5  7  1  0  0  0  0
  5 15  1  0  0  0  0
  6  8  1  0  0  0  0
  6 15  1  0  0  0  0
  7 16  1  0  0  0  0
  8 16  1  0  0  0  0
 10 12  1  0  0  0  0
 11 16  1  0  0  0  0
  5 18  1  0  0  0  0
  5 19  1  0  0  0  0
  6 20  1  0  0  0  0
  6 21  1  0  0  0  0
  7 22  1  0  0  0  0
  7 23  1  0  0  0  0
  8 24  1  0  0  0  0
  8 25  1  0  0  0  0
  9 26  1  0  0  0  0
  9 27  1  0  0  0  0
  9 28  1  0  0  0  0
 10 29  1  0  0  0  0
 10 30  1  0  0  0  0
 10 31  1  0  0  0  0
 11 32  1  0  0  0  0
 11 33  1  0  0  0  0
 11 34  1  0  0  0  0
 12 35  1  0  0  0  0
 12 36  1  0  0  0  0
 17 37  1  0  0  0  0
 17 38  1  0  0  0  0
M  END
> <HYBRID receptor title>
27_FRAG(A) > 95F(A-200)

> <HYBRID receptor filename>
data/docking/pairs/27_frag.oedu

> <HYBRID Chemgauss4 score>
-14.073472

> <HYBRID receptor title>
27_FRAG(A) > 95F(A-200)

> <HYBRID receptor filename>
data/docking/pairs/27_frag.oedu

> <Dock Type>
Hybrid

$$$$
MOL0026
  -OEChem-08212416293D

 35 36  0     0  0  0  0  0  0999 V2000
    0.8027   -7.9553  -17.9431 C   0  0  0  0  0  0  0  0  0  0  0  0
    2.1415   -7.7683  -17.6663 C   0  0  0  0  0  0  0  0  0  0  0  0
    0.1728   -8.9399  -17.2099 C   0  0  0  0  0  0  0  0  0  0  0  0
    2.0984   -9.4132  -16.0975 C   0  0  0  0  0  0  0  0  0  0  0  0
   -1.6410  -10.4863  -17.8942 C   0  0  0  0  0  0  0  0  0  0  0  0
   -2.2285   -8.3247  -16.8786 C   0  0  0  0  0  0  0  0  0  0  0  0
   -2.3453  -11.1954  -16.7292 C   0  0  0  0  0  0  0  0  0  0  0  0
   -2.9093   -9.0578  -15.7202 C   0  0  0  0  0  0  0  0  0  0  0  0
    0.0926   -7.1411  -18.9676 C   0  0  0  0  0  0  0  0  0  0  0  0
    2.9277   -6.7289  -18.3954 C   0  0  0  0  0  0  0  0  0  0  0  0
   -4.0797  -11.0603  -15.0587 C   0  0  0  0  0  0  0  0  0  0  0  0
    2.8234   -8.4821  -16.7465 N   0  0  0  0  0  0  0  0  0  0  0  0
    0.7925   -9.6912  -16.2758 N   0  0  0  0  0  0  0  0  0  0  0  0
   -1.1777   -9.1725  -17.4417 N   0  0  0  0  0  0  0  0  0  0  0  0
   -3.4193  -10.3654  -16.1620 N   0  0  0  0  0  0  0  0  0  0  0  0
    2.7803  -10.1804  -15.1280 N   0  0  0  0  0  0  0  0  0  0  0  0
   -0.7994  -11.0957  -18.2210 H   0  0  0  0  0  0  0  0  0  0  0  0
   -2.3337  -10.3701  -18.7281 H   0  0  0  0  0  0  0  0  0  0  0  0
   -2.9662   -8.0852  -17.6492 H   0  0  0  0  0  0  0  0  0  0  0  0
   -1.8052   -7.3894  -16.5060 H   0  0  0  0  0  0  0  0  0  0  0  0
   -2.7654  -12.1347  -17.1096 H   0  0  0  0  0  0  0  0  0  0  0  0
   -1.6061  -11.4603  -15.9610 H   0  0  0  0  0  0  0  0  0  0  0  0
   -2.2037   -9.1717  -14.8906 H   0  0  0  0  0  0  0  0  0  0  0  0
   -3.7381   -8.4384  -15.3653 H   0  0  0  0  0  0  0  0  0  0  0  0
    0.1453   -7.6098  -19.9600 H   0  0  0  0  0  0  0  0  0  0  0  0
    0.5397   -6.1420  -19.0660 H   0  0  0  0  0  0  0  0  0  0  0  0
   -0.9649   -7.0213  -18.6980 H   0  0  0  0  0  0  0  0  0  0  0  0
    2.8925   -5.7650  -17.8725 H   0  0  0  0  0  0  0  0  0  0  0  0
    2.5249   -6.5610  -19.4023 H   0  0  0  0  0  0  0  0  0  0  0  0
    3.9754   -7.0389  -18.4858 H   0  0  0  0  0  0  0  0  0  0  0  0
   -4.8780  -10.4422  -14.6378 H   0  0  0  0  0  0  0  0  0  0  0  0
   -4.5126  -12.0012  -15.4099 H   0  0  0  0  0  0  0  0  0  0  0  0
   -3.3579  -11.2870  -14.2692 H   0  0  0  0  0  0  0  0  0  0  0  0
    3.7619  -10.0432  -15.0026 H   0  0  0  0  0  0  0  0  0  0  0  0
    2.2935  -10.9174  -14.6612 H   0  0  0  0  0  0  0  0  0  0  0  0
  1  2  2  0  0  0  0
  1  3  1  0  0  0  0
  1  9  1  0  0  0  0
  2 10  1  0  0  0  0
  2 12  1  0  0  0  0
  3 13  2  0  0  0  0
  3 14  1  0  0  0  0
  4 12  2  0  0  0  0
  4 13  1  0  0  0  0
  4 16  1  0  0  0  0
  5  7  1  0  0  0  0
  5 14  1  0  0  0  0
  6  8  1  0  0  0  0
  6 14  1  0  0  0  0
  7 15  1  0  0  0  0
  8 15  1  0  0  0  0
 11 15  1  0  0  0  0
  5 17  1  0  0  0  0
  5 18  1  0  0  0  0
  6 19  1  0  0  0  0
  6 20  1  0  0  0  0
  7 21  1  0  0  0  0
  7 22  1  0  0  0  0
  8 23  1  0  0  0  0
  8 24  1  0  0  0  0
  9 25  1  0  0  0  0
  9 26  1  0  0  0  0
  9 27  1  0  0  0  0
 10 28  1  0  0  0  0
 10 29  1  0  0  0  0
 10 30  1  0  0  0  0
 11 31  1  0  0  0  0
 11 32  1  0  0  0  0
 11 33  1  0  0  0  0
 16 34  1  0  0  0  0
 16 35  1  0  0  0  0
M  END
> <HYBRID receptor title>
27_FRAG(A) > 95F(A-200)

> <HYBRID receptor filename>
data/docking/pairs/27_frag.oedu

> <HYBRID Chemgauss4 score>
-14.031105

> <HYBRID receptor title>
27_FRAG(A) > 95F(A-200)

> <HYBRID receptor filename>
data/docking/pairs/27_frag.oedu

> <Dock Type>
Hybrid

$$$$
MOL0012
  -OEChem-08212416293D

 39 40  0     0  0  0  0  0  0999 V2000
    0.9592   -7.7367  -17.4823 C   0  0  0  0  0  0  0  0  0  0  0  0
    2.3372   -7.8057  -17.4661 C   0  0  0  0  0  0  0  0  0  0  0  0
    0.3060   -8.6408  -16.6702 C   0  0  0  0  0  0  0  0  0  0  0  0
    2.2839   -9.5156  -15.9687 C   0  0  0  0  0  0  0  0  0  0  0  0
   -2.4485  -10.6357  -16.8259 C   0  0  0  0  0  0  0  0  0  0  0  0
   -2.4063   -9.2754  -14.6895 C   0  0  0  0  0  0  0  0  0  0  0  0
   -1.8639   -9.4341  -17.5764 C   0  0  0  0  0  0  0  0  0  0  0  0
   -1.8291   -8.1072  -15.4892 C   0  0  0  0  0  0  0  0  0  0  0  0
   -3.2308  -10.2377  -15.5625 C   0  0  0  0  0  0  0  0  0  0  0  0
    3.1522   -6.8755  -18.3031 C   0  0  0  0  0  0  0  0  0  0  0  0
   -4.5994   -9.6460  -15.9146 C   0  0  0  0  0  0  0  0  0  0  0  0
    0.1947   -7.1503  -19.7967 C   0  0  0  0  0  0  0  0  0  0  0  0
    0.2336   -6.7459  -18.3242 C   0  0  0  0  0  0  0  0  0  0  0  0
    3.0347   -8.6861  -16.7184 N   0  0  0  0  0  0  0  0  0  0  0  0
    0.9391   -9.5480  -15.8975 N   0  0  0  0  0  0  0  0  0  0  0  0
   -1.0843   -8.6173  -16.6414 N   0  0  0  0  0  0  0  0  0  0  0  0
    2.9807  -10.4516  -15.1739 N   0  0  0  0  0  0  0  0  0  0  0  0
   -3.1040  -11.2022  -17.5088 H   0  0  0  0  0  0  0  0  0  0  0  0
   -1.6294  -11.3209  -16.5543 H   0  0  0  0  0  0  0  0  0  0  0  0
   -1.5845   -9.8242  -14.2097 H   0  0  0  0  0  0  0  0  0  0  0  0
   -3.0329   -8.8818  -13.8758 H   0  0  0  0  0  0  0  0  0  0  0  0
   -1.2267   -9.7821  -18.3903 H   0  0  0  0  0  0  0  0  0  0  0  0
   -2.6839   -8.8543  -18.0007 H   0  0  0  0  0  0  0  0  0  0  0  0
   -2.6513   -7.4661  -15.8176 H   0  0  0  0  0  0  0  0  0  0  0  0
   -1.1685   -7.5136  -14.8512 H   0  0  0  0  0  0  0  0  0  0  0  0
   -3.4151  -11.1616  -14.9707 H   0  0  0  0  0  0  0  0  0  0  0  0
    3.3934   -5.9562  -17.7549 H   0  0  0  0  0  0  0  0  0  0  0  0
    2.6071   -6.5747  -19.2068 H   0  0  0  0  0  0  0  0  0  0  0  0
    4.0891   -7.3580  -18.6050 H   0  0  0  0  0  0  0  0  0  0  0  0
   -4.4696   -8.7353  -16.4970 H   0  0  0  0  0  0  0  0  0  0  0  0
   -5.1461   -9.4111  -15.0028 H   0  0  0  0  0  0  0  0  0  0  0  0
   -5.1737  -10.3640  -16.4992 H   0  0  0  0  0  0  0  0  0  0  0  0
   -0.2640   -8.1372  -19.9208 H   0  0  0  0  0  0  0  0  0  0  0  0
    1.2047   -7.1941  -20.2178 H   0  0  0  0  0  0  0  0  0  0  0  0
   -0.3857   -6.4303  -20.3820 H   0  0  0  0  0  0  0  0  0  0  0  0
    0.7002   -5.7509  -18.2385 H   0  0  0  0  0  0  0  0  0  0  0  0
   -0.7993   -6.6136  -17.9609 H   0  0  0  0  0  0  0  0  0  0  0  0
    3.9766  -10.4972  -15.2380 H   0  0  0  0  0  0  0  0  0  0  0  0
    2.4617  -11.1204  -14.6434 H   0  0  0  0  0  0  0  0  0  0  0  0
  1  2  1  0  0  0  0
  1  3  2  0  0  0  0
  1 13  1  0  0  0  0
  2 10  1  0  0  0  0
  2 14  2  0  0  0  0
  3 15  1  0  0  0  0
  3 16  1  0  0  0  0
  4 14  1  0  0  0  0
  4 15  2  0  0  0  0
  4 17  1  0  0  0  0
  5  7  1  0  0  0  0
  5  9  1  0  0  0  0
  6  8  1  0  0  0  0
  6  9  1  0  0  0  0
  7 16  1  0  0  0  0
  8 16  1  0  0  0  0
  9 11  1  0  0  0  0
 12 13  1  0  0  0  0
  5 18  1  0  0  0  0
  5 19  1  0  0  0  0
  6 20  1  0  0  0  0
  6 21  1  0  0  0  0
  7 22  1  0  0  0  0
  7 23  1  0  0  0  0
  8 24  1  0  0  0  0
  8 25  1  0  0  0  0
  9 26  1  0  0  0  0
 10 27  1  0  0  0  0
 10 28  1  0  0  0  0
 10 29  1  0  0  0  0
 11 30  1  0  0  0  0
 11 31  1  0  0  0  0
 11 32  1  0  0  0  0
 12 33  1  0  0  0  0
 12 34  1  0  0  0  0
 12 35  1  0  0  0  0
 13 36  1  0  0  0  0
 13 37  1  0  0  0  0
 17 38  1  0  0  0  0
 17 39  1  0  0  0  0
M  END
> <HYBRID receptor title>
27_FRAG(A) > 95F(A-200)

> <HYBRID receptor filename>
data/docking/pairs/27_frag.oedu

> <HYBRID Chemgauss4 score>
-14.010361

> <HYBRID receptor title>
27_FRAG(A) > 95F(A-200)

> <HYBRID receptor filename>
data/docking/pairs/27_frag.oedu

> <Dock Type>
Hybrid

$$$$
MOL0024
  -OEChem-08212416293D

 48 50  0     0  0  0  0  0  0999 V2000
   -6.0995  -13.2379  -16.5047 C   0  0  0  0  0  0  0  0  0  0  0  0
   -5.2468  -13.3037  -15.4027 C   0  0  0  0  0  0  0  0  0  0  0  0
   -6.2538  -12.0362  -17.1956 C   0  0  0  0  0  0  0  0  0  0  0  0
   -4.5484  -12.1681  -14.9919 C   0  0  0  0  0  0  0  0  0  0  0  0
   -5.5553  -10.9006  -16.7848 C   0  0  0  0  0  0  0  0  0  0  0  0
   -4.7027  -10.9663  -15.6829 C   0  0  0  0  0  0  0  0  0  0  0  0
    1.2479   -7.6901  -17.4078 C   0  0  0  0  0  0  0  0  0  0  0  0
    2.6272   -7.7283  -17.4179 C   0  0  0  0  0  0  0  0  0  0  0  0
    0.6287   -8.6649  -16.6528 C   0  0  0  0  0  0  0  0  0  0  0  0
    2.6370   -9.5417  -16.0467 C   0  0  0  0  0  0  0  0  0  0  0  0
   -1.4588   -7.9123  -15.5543 C   0  0  0  0  0  0  0  0  0  0  0  0
   -1.4710   -9.8596  -17.1163 C   0  0  0  0  0  0  0  0  0  0  0  0
   -2.9191   -7.6556  -15.9371 C   0  0  0  0  0  0  0  0  0  0  0  0
   -2.9320   -9.5326  -17.4382 C   0  0  0  0  0  0  0  0  0  0  0  0
    3.4071   -6.7219  -18.1983 C   0  0  0  0  0  0  0  0  0  0  0  0
    0.4314   -6.9575  -19.6620 C   0  0  0  0  0  0  0  0  0  0  0  0
    0.4865   -6.6587  -18.1650 C   0  0  0  0  0  0  0  0  0  0  0  0
   -3.9510   -9.7436  -15.2409 C   0  0  0  0  0  0  0  0  0  0  0  0
    3.3565   -8.6435  -16.7463 N   0  0  0  0  0  0  0  0  0  0  0  0
    1.2946   -9.6101  -15.9572 N   0  0  0  0  0  0  0  0  0  0  0  0
   -0.7714   -8.6757  -16.6005 N   0  0  0  0  0  0  0  0  0  0  0  0
   -3.6526   -8.8519  -16.3585 N   0  0  0  0  0  0  0  0  0  0  0  0
    3.3676  -10.5158  -15.3321 N   0  0  0  0  0  0  0  0  0  0  0  0
   -6.6433  -14.1219  -16.8245 H   0  0  0  0  0  0  0  0  0  0  0  0
   -5.1263  -14.2395  -14.8648 H   0  0  0  0  0  0  0  0  0  0  0  0
   -6.9177  -11.9847  -18.0535 H   0  0  0  0  0  0  0  0  0  0  0  0
   -3.8864  -12.2290  -14.1321 H   0  0  0  0  0  0  0  0  0  0  0  0
   -5.6813   -9.9690  -17.3301 H   0  0  0  0  0  0  0  0  0  0  0  0
   -0.9587   -6.9480  -15.3988 H   0  0  0  0  0  0  0  0  0  0  0  0
   -1.4162   -8.4644  -14.6056 H   0  0  0  0  0  0  0  0  0  0  0  0
   -1.4273  -10.6668  -16.3725 H   0  0  0  0  0  0  0  0  0  0  0  0
   -0.9793  -10.2219  -18.0279 H   0  0  0  0  0  0  0  0  0  0  0  0
   -3.4233   -7.2037  -15.0575 H   0  0  0  0  0  0  0  0  0  0  0  0
   -2.9562   -6.8746  -16.7284 H   0  0  0  0  0  0  0  0  0  0  0  0
   -2.9730   -8.9331  -18.3745 H   0  0  0  0  0  0  0  0  0  0  0  0
   -3.4453  -10.4867  -17.6812 H   0  0  0  0  0  0  0  0  0  0  0  0
    3.6375   -5.8389  -17.5892 H   0  0  0  0  0  0  0  0  0  0  0  0
    2.8402   -6.3700  -19.0695 H   0  0  0  0  0  0  0  0  0  0  0  0
    4.3492   -7.1598  -18.5486 H   0  0  0  0  0  0  0  0  0  0  0  0
   -0.0076   -7.9434  -19.8496 H   0  0  0  0  0  0  0  0  0  0  0  0
    1.4348   -6.9477  -20.1007 H   0  0  0  0  0  0  0  0  0  0  0  0
   -0.1746   -6.2111  -20.1849 H   0  0  0  0  0  0  0  0  0  0  0  0
    0.9326   -5.6618  -18.0152 H   0  0  0  0  0  0  0  0  0  0  0  0
   -0.5427   -6.5766  -17.7772 H   0  0  0  0  0  0  0  0  0  0  0  0
   -4.5319   -9.1789  -14.5042 H   0  0  0  0  0  0  0  0  0  0  0  0
   -3.0020  -10.0158  -14.7674 H   0  0  0  0  0  0  0  0  0  0  0  0
    4.3631  -10.5336  -15.4147 H   0  0  0  0  0  0  0  0  0  0  0  0
    2.8726  -11.2326  -14.8431 H   0  0  0  0  0  0  0  0  0  0  0  0
  1  2  1  0  0  0  0
  1  3  2  0  0  0  0
  2  4  2  0  0  0  0
  3  5  1  0  0  0  0
  4  6  1  0  0  0  0
  5  6  2  0  0  0  0
  6 18  1  0  0  0  0
  7  8  1  0  0  0  0
  7  9  2  0  0  0  0
  7 17  1  0  0  0  0
  8 15  1  0  0  0  0
  8 19  2  0  0  0  0
  9 20  1  0  0  0  0
  9 21  1  0  0  0  0
 10 19  1  0  0  0  0
 10 20  2  0  0  0  0
 10 23  1  0  0  0  0
 11 13  1  0  0  0  0
 11 21  1  0  0  0  0
 12 14  1  0  0  0  0
 12 21  1  0  0  0  0
 13 22  1  0  0  0  0
 14 22  1  0  0  0  0
 16 17  1  0  0  0  0
 18 22  1  0  0  0  0
  1 24  1  0  0  0  0
  2 25  1  0  0  0  0
  3 26  1  0  0  0  0
  4 27  1  0  0  0  0
  5 28  1  0  0  0  0
 11 29  1  0  0  0  0
 11 30  1  0  0  0  0
 12 31  1  0  0  0  0
 12 32  1  0  0  0  0
 13 33  1  0  0  0  0
 13 34  1  0  0  0  0
 14 35  1  0  0  0  0
 14 36  1  0  0  0  0
 15 37  1  0  0  0  0
 15 38  1  0  0  0  0
 15 39  1  0  0  0  0
 16 40  1  0  0  0  0
 16 41  1  0  0  0  0
 16 42  1  0  0  0  0
 17 43  1  0  0  0  0
 17 44  1  0  0  0  0
 18 45  1  0  0  0  0
 18 46  1  0  0  0  0
 23 47  1  0  0  0  0
 23 48  1  0  0  0  0
M  END
> <HYBRID receptor title>
27_FRAG(A) > 95F(A-200)

> <HYBRID receptor filename>
data/docking/pairs/27_frag.oedu

> <HYBRID Chemgauss4 score>
-13.973022

> <HYBRID receptor title>
27_FRAG(A) > 95F(A-200)

> <HYBRID receptor filename>
data/docking/pairs/27_frag.oedu

> <Dock Type>
Hybrid

$$$$
MOL0028
  -OEChem-08212416293D

 37 38  0     0  0  0  0  0  0999 V2000
    0.4422   -7.9582  -17.0533 C   0  0  0  0  0  0  0  0  0  0  0  0
    1.8108   -7.8866  -17.2134 C   0  0  0  0  0  0  0  0  0  0  0  0
    0.0042   -8.7140  -15.9852 C   0  0  0  0  0  0  0  0  0  0  0  0
    2.1431   -9.2089  -15.3940 C   0  0  0  0  0  0  0  0  0  0  0  0
   -3.3768   -7.9683  -14.6048 C   0  0  0  0  0  0  0  0  0  0  0  0
   -3.6051   -9.5410  -16.5412 C   0  0  0  0  0  0  0  0  0  0  0  0
   -1.8973   -8.3366  -14.4837 C   0  0  0  0  0  0  0  0  0  0  0  0
   -2.1224   -9.9013  -16.4220 C   0  0  0  0  0  0  0  0  0  0  0  0
   -4.2033   -9.0989  -15.2105 C   0  0  0  0  0  0  0  0  0  0  0  0
    2.4021   -7.0954  -18.3334 C   0  0  0  0  0  0  0  0  0  0  0  0
   -0.6469   -7.9900  -19.3111 C   0  0  0  0  0  0  0  0  0  0  0  0
   -0.4931   -7.2602  -17.9780 C   0  0  0  0  0  0  0  0  0  0  0  0
    2.6937   -8.5018  -16.3993 N   0  0  0  0  0  0  0  0  0  0  0  0
    0.8298   -9.3557  -15.1324 N   0  0  0  0  0  0  0  0  0  0  0  0
   -1.3755   -8.8214  -15.7687 N   0  0  0  0  0  0  0  0  0  0  0  0
    3.0377   -9.8673  -14.5225 N   0  0  0  0  0  0  0  0  0  0  0  0
   -4.2309  -10.2138  -14.3229 O   0  0  0  0  0  0  0  0  0  0  0  0
   -3.7759   -7.7041  -13.6155 H   0  0  0  0  0  0  0  0  0  0  0  0
   -3.4866   -7.0622  -15.2145 H   0  0  0  0  0  0  0  0  0  0  0  0
   -3.7339   -8.7461  -17.2895 H   0  0  0  0  0  0  0  0  0  0  0  0
   -4.1664  -10.4017  -16.9356 H   0  0  0  0  0  0  0  0  0  0  0  0
   -1.3244   -7.4594  -14.1586 H   0  0  0  0  0  0  0  0  0  0  0  0
   -1.7892   -9.1088  -13.7129 H   0  0  0  0  0  0  0  0  0  0  0  0
   -2.0336  -10.8308  -15.8460 H   0  0  0  0  0  0  0  0  0  0  0  0
   -1.7083  -10.0895  -17.4209 H   0  0  0  0  0  0  0  0  0  0  0  0
   -5.2400   -8.7650  -15.3603 H   0  0  0  0  0  0  0  0  0  0  0  0
    2.5861   -6.0566  -18.0318 H   0  0  0  0  0  0  0  0  0  0  0  0
    1.7248   -7.0624  -19.1961 H   0  0  0  0  0  0  0  0  0  0  0  0
    3.3522   -7.5397  -18.6523 H   0  0  0  0  0  0  0  0  0  0  0  0
   -0.9887   -9.0194  -19.1579 H   0  0  0  0  0  0  0  0  0  0  0  0
    0.3064   -8.0292  -19.8486 H   0  0  0  0  0  0  0  0  0  0  0  0
   -1.3758   -7.4820  -19.9500 H   0  0  0  0  0  0  0  0  0  0  0  0
   -0.1488   -6.2309  -18.1711 H   0  0  0  0  0  0  0  0  0  0  0  0
   -1.4866   -7.1506  -17.5119 H   0  0  0  0  0  0  0  0  0  0  0  0
    4.0177   -9.8286  -14.7125 H   0  0  0  0  0  0  0  0  0  0  0  0
    2.6705  -10.4458  -13.7954 H   0  0  0  0  0  0  0  0  0  0  0  0
   -4.6331   -9.9021  -13.4966 H   0  0  0  0  0  0  0  0  0  0  0  0
  1  2  1  0  0  0  0
  1  3  2  0  0  0  0
  1 12  1  0  0  0  0
  2 10  1  0  0  0  0
  2 13  2  0  0  0  0
  3 14  1  0  0  0  0
  3 15  1  0  0  0  0
  4 13  1  0  0  0  0
  4 14  2  0  0  0  0
  4 16  1  0  0  0  0
  5  7  1  0  0  0  0
  5  9  1  0  0  0  0
  6  8  1  0  0  0  0
  6  9  1  0  0  0  0
  7 15  1  0  0  0  0
  8 15  1  0  0  0  0
  9 17  1  0  0  0  0
 11 12  1  0  0  0  0
  5 18  1  0  0  0  0
  5 19  1  0  0  0  0
  6 20  1  0  0  0  0
  6 21  1  0  0  0  0
  7 22  1  0  0  0  0
  7 23  1  0  0  0  0
  8 24  1  0  0  0  0
  8 25  1  0  0  0  0
  9 26  1  0  0  0  0
 10 27  1  0  0  0  0
 10 28  1  0  0  0  0
 10 29  1  0  0  0  0
 11 30  1  0  0  0  0
 11 31  1  0  0  0  0
 11 32  1  0  0  0  0
 12 33  1  0  0  0  0
 12 34  1  0  0  0  0
 16 35  1  0  0  0  0
 16 36  1  0  0  0  0
 17 37  1  0  0  0  0
M  END
> <HYBRID receptor title>
27_FRAG(A) > 95F(A-200)

> <HYBRID receptor filename>
data/docking/pairs/27_frag.oedu

> <HYBRID Chemgauss4 score>
-13.911490

> <HYBRID receptor title>
27_FRAG(A) > 95F(A-200)

> <HYBRID receptor filename>
data/docking/pairs/27_frag.oedu

> <Dock Type>
Hybrid

$$$$
MOL0025
  -OEChem-08212416293D

 44 45  0     0  0  0  0  0  0999 V2000
    0.9027   -7.7123  -17.5165 C   0  0  0  0  0  0  0  0  0  0  0  0
    2.2765   -7.5838  -17.5082 C   0  0  0  0  0  0  0  0  0  0  0  0
    0.3820   -8.6200  -16.6173 C   0  0  0  0  0  0  0  0  0  0  0  0
    2.4618   -9.1368  -15.8581 C   0  0  0  0  0  0  0  0  0  0  0  0
   -4.9616   -9.9709  -16.1589 C   0  0  0  0  0  0  0  0  0  0  0  0
   -1.5940   -9.8152  -17.4524 C   0  0  0  0  0  0  0  0  0  0  0  0
   -1.7321   -8.4904  -15.3363 C   0  0  0  0  0  0  0  0  0  0  0  0
   -3.0717   -9.5319  -17.7046 C   0  0  0  0  0  0  0  0  0  0  0  0
   -3.2109   -8.2318  -15.6179 C   0  0  0  0  0  0  0  0  0  0  0  0
    2.9538   -6.6298  -18.4362 C   0  0  0  0  0  0  0  0  0  0  0  0
    0.0697   -7.4585  -19.8673 C   0  0  0  0  0  0  0  0  0  0  0  0
   -5.1816  -12.7950  -15.7374 C   0  0  0  0  0  0  0  0  0  0  0  0
    0.0464   -6.9171  -18.4392 C   0  0  0  0  0  0  0  0  0  0  0  0
   -6.0384  -12.0184  -16.7143 C   0  0  0  0  0  0  0  0  0  0  0  0
    3.0896   -8.2830  -16.6892 N   0  0  0  0  0  0  0  0  0  0  0  0
    1.1350   -9.3523  -15.7703 N   0  0  0  0  0  0  0  0  0  0  0  0
   -1.0071   -8.7920  -16.5761 N   0  0  0  0  0  0  0  0  0  0  0  0
   -3.7840   -9.2810  -16.4578 N   0  0  0  0  0  0  0  0  0  0  0  0
    3.2820   -9.8864  -14.9871 N   0  0  0  0  0  0  0  0  0  0  0  0
   -5.6148   -9.8118  -15.1289 O   0  0  0  0  0  0  0  0  0  0  0  0
   -5.3204  -10.8541  -17.1420 O   0  0  0  0  0  0  0  0  0  0  0  0
   -1.4933  -10.8026  -16.9921 H   0  0  0  0  0  0  0  0  0  0  0  0
   -1.0515   -9.8329  -18.4029 H   0  0  0  0  0  0  0  0  0  0  0  0
   -1.3094   -7.6078  -14.8455 H   0  0  0  0  0  0  0  0  0  0  0  0
   -1.6221   -9.3334  -14.6476 H   0  0  0  0  0  0  0  0  0  0  0  0
   -3.1774   -8.6753  -18.3647 H   0  0  0  0  0  0  0  0  0  0  0  0
   -3.5447  -10.3901  -18.1783 H   0  0  0  0  0  0  0  0  0  0  0  0
   -3.7636   -8.1604  -14.6801 H   0  0  0  0  0  0  0  0  0  0  0  0
   -3.3391   -7.2861  -16.1504 H   0  0  0  0  0  0  0  0  0  0  0  0
    3.0606   -5.6385  -17.9782 H   0  0  0  0  0  0  0  0  0  0  0  0
    2.3742   -6.4949  -19.3582 H   0  0  0  0  0  0  0  0  0  0  0  0
    3.9506   -7.0009  -18.7017 H   0  0  0  0  0  0  0  0  0  0  0  0
   -0.2441   -8.5077  -19.8945 H   0  0  0  0  0  0  0  0  0  0  0  0
    1.0769   -7.3981  -20.2929 H   0  0  0  0  0  0  0  0  0  0  0  0
   -0.6052   -6.8857  -20.5109 H   0  0  0  0  0  0  0  0  0  0  0  0
   -4.2465  -13.1143  -16.2063 H   0  0  0  0  0  0  0  0  0  0  0  0
   -4.9466  -12.1840  -14.8598 H   0  0  0  0  0  0  0  0  0  0  0  0
   -5.7153  -13.6796  -15.3754 H   0  0  0  0  0  0  0  0  0  0  0  0
    0.3669   -5.8624  -18.4510 H   0  0  0  0  0  0  0  0  0  0  0  0
   -0.9959   -6.8989  -18.0791 H   0  0  0  0  0  0  0  0  0  0  0  0
   -6.9717  -11.7021  -16.2393 H   0  0  0  0  0  0  0  0  0  0  0  0
   -6.2720  -12.6300  -17.5914 H   0  0  0  0  0  0  0  0  0  0  0  0
    4.2745   -9.7964  -15.0570 H   0  0  0  0  0  0  0  0  0  0  0  0
    2.8616  -10.5695  -14.3914 H   0  0  0  0  0  0  0  0  0  0  0  0
  1  2  1  0  0  0  0
  1  3  2  0  0  0  0
  1 13  1  0  0  0  0
  2 10  1  0  0  0  0
  2 15  2  0  0  0  0
  3 16  1  0  0  0  0
  3 17  1  0  0  0  0
  4 15  1  0  0  0  0
  4 16  2  0  0  0  0
  4 19  1  0  0  0  0
  5 18  1  0  0  0  0
  5 20  2  0  0  0  0
  5 21  1  0  0  0  0
  6  8  1  0  0  0  0
  6 17  1  0  0  0  0
  7  9  1  0  0  0  0
  7 17  1  0  0  0  0
  8 18  1  0  0  0  0
  9 18  1  0  0  0  0
 11 13  1  0  0  0  0
 12 14  1  0  0  0  0
 14 21  1  0  0  0  0
  6 22  1  0  0  0  0
  6 23  1  0  0  0  0
  7 24  1  0  0  0  0
  7 25  1  0  0  0  0
  8 26  1  0  0  0  0
  8 27  1  0  0  0  0
  9 28  1  0  0  0  0
  9 29  1  0  0  0  0
 10 30  1  0  0  0  0
 10 31  1  0  0  0  0
 10 32  1  0  0  0  0
 11 33  1  0  0  0  0
 11 34  1  0  0  0  0
 11 35  1  0  0  0  0
 12 36  1  0  0  0  0
 12 37  1  0  0  0  0
 12 38  1  0  0  0  0
 13 39  1  0  0  0  0
 13 40  1  0  0  0  0
 14 41  1  0  0  0  0
 14 42  1  0  0  0  0
 19 43  1  0  0  0  0
 19 44  1  0  0  0  0
M  END
> <HYBRID receptor title>
27_FRAG(A) > 95F(A-200)

> <HYBRID receptor filename>
data/docking/pairs/27_frag.oedu

> <HYBRID Chemgauss4 score>
-13.877748

> <HYBRID receptor title>
27_FRAG(A) > 95F(A-200)

> <HYBRID receptor filename>
data/docking/pairs/27_frag.oedu

> <Dock Type>
Hybrid

$$$$
MOL0021
  -OEChem-08212416293D

 34 35  0     0  0  0  0  0  0999 V2000
    0.6056   -7.7586  -17.2733 C   0  0  0  0  0  0  0  0  0  0  0  0
    1.9794   -7.6955  -17.3855 C   0  0  0  0  0  0  0  0  0  0  0  0
    0.1228   -8.6510  -16.3383 C   0  0  0  0  0  0  0  0  0  0  0  0
    2.2340   -9.2745  -15.7696 C   0  0  0  0  0  0  0  0  0  0  0  0
   -1.9527   -9.7481  -17.0147 C   0  0  0  0  0  0  0  0  0  0  0  0
   -1.8558   -8.4514  -14.8690 C   0  0  0  0  0  0  0  0  0  0  0  0
   -3.3736   -9.3110  -17.3488 C   0  0  0  0  0  0  0  0  0  0  0  0
   -3.2767   -7.9148  -15.0056 C   0  0  0  0  0  0  0  0  0  0  0  0
    2.6176   -6.7640  -18.3628 C   0  0  0  0  0  0  0  0  0  0  0  0
   -0.4177   -7.4386  -19.5394 C   0  0  0  0  0  0  0  0  0  0  0  0
   -0.2892   -6.9132  -18.1109 C   0  0  0  0  0  0  0  0  0  0  0  0
    2.8267   -8.4418  -16.6468 N   0  0  0  0  0  0  0  0  0  0  0  0
    0.9112   -9.4279  -15.5665 N   0  0  0  0  0  0  0  0  0  0  0  0
   -1.2640   -8.7575  -16.1757 N   0  0  0  0  0  0  0  0  0  0  0  0
    3.0905  -10.0722  -14.9800 N   0  0  0  0  0  0  0  0  0  0  0  0
   -4.3713   -9.0837  -15.8532 S   0  0  0  0  0  0  0  0  0  0  0  0
   -1.9741  -10.7216  -16.5017 H   0  0  0  0  0  0  0  0  0  0  0  0
   -1.3742   -9.9109  -17.9372 H   0  0  0  0  0  0  0  0  0  0  0  0
   -1.2177   -7.7242  -14.3352 H   0  0  0  0  0  0  0  0  0  0  0  0
   -1.8582   -9.3570  -14.2363 H   0  0  0  0  0  0  0  0  0  0  0  0
   -3.3470   -8.3575  -17.8858 H   0  0  0  0  0  0  0  0  0  0  0  0
   -3.8686  -10.0360  -18.0036 H   0  0  0  0  0  0  0  0  0  0  0  0
   -3.7046   -7.6650  -14.0263 H   0  0  0  0  0  0  0  0  0  0  0  0
   -3.2593   -6.9859  -15.5887 H   0  0  0  0  0  0  0  0  0  0  0  0
    2.8120   -5.7843  -17.9087 H   0  0  0  0  0  0  0  0  0  0  0  0
    1.9664   -6.5912  -19.2290 H   0  0  0  0  0  0  0  0  0  0  0  0
    3.5682   -7.1789  -18.7180 H   0  0  0  0  0  0  0  0  0  0  0  0
   -0.7829   -8.4713  -19.5464 H   0  0  0  0  0  0  0  0  0  0  0  0
    0.5499   -7.4211  -20.0519 H   0  0  0  0  0  0  0  0  0  0  0  0
   -1.1182   -6.8271  -20.1165 H   0  0  0  0  0  0  0  0  0  0  0  0
    0.0795   -5.8748  -18.1432 H   0  0  0  0  0  0  0  0  0  0  0  0
   -1.2937   -6.8498  -17.6599 H   0  0  0  0  0  0  0  0  0  0  0  0
    4.0762  -10.0285  -15.1367 H   0  0  0  0  0  0  0  0  0  0  0  0
    2.6916  -10.7414  -14.3546 H   0  0  0  0  0  0  0  0  0  0  0  0
  1  2  1  0  0  0  0
  1  3  2  0  0  0  0
  1 11  1  0  0  0  0
  2  9  1  0  0  0  0
  2 12  2  0  0  0  0
  3 13  1  0  0  0  0
  3 14  1  0  0  0  0
  4 12  1  0  0  0  0
  4 13  2  0  0  0  0
  4 15  1  0  0  0  0
  5  7  1  0  0  0  0
  5 14  1  0  0  0  0
  6  8  1  0  0  0  0
  6 14  1  0  0  0  0
  7 16  1  0  0  0  0
  8 16  1  0  0  0  0
 10 11  1  0  0  0  0
  5 17  1  0  0  0  0
  5 18  1  0  0  0  0
  6 19  1  0  0  0  0
  6 20  1  0  0  0  0
  7 21  1  0  0  0  0
  7 22  1  0  0  0  0
  8 23  1  0  0  0  0
  8 24  1  0  0  0  0
  9 25  1  0  0  0  0
  9 26  1  0  0  0  0
  9 27  1  0  0  0  0
 10 28  1  0  0  0  0
 10 29  1  0  0  0  0
 10 30  1  0  0  0  0
 11 31  1  0  0  0  0
 11 32  1  0  0  0  0
 15 33  1  0  0  0  0
 15 34  1  0  0  0  0
M  END
> <HYBRID receptor title>
27_FRAG(A) > 95F(A-200)

> <HYBRID receptor filename>
data/docking/pairs/27_frag.oedu

> <HYBRID Chemgauss4 score>
-13.877526

> <HYBRID receptor title>
27_FRAG(A) > 95F(A-200)

> <HYBRID receptor filename>
data/docking/pairs/27_frag.oedu

> <Dock Type>
Hybrid

$$$$
MOL0032
  -OEChem-08212416293D

 41 42  0     0  0  0  0  0  0999 V2000
    1.0497   -7.8722  -17.9499 C   0  0  0  0  0  0  0  0  0  0  0  0
    2.4048   -7.7933  -17.7020 C   0  0  0  0  0  0  0  0  0  0  0  0
    0.3455   -8.7467  -17.1480 C   0  0  0  0  0  0  0  0  0  0  0  0
    2.2393   -9.3265  -16.0314 C   0  0  0  0  0  0  0  0  0  0  0  0
   -4.9831   -9.9605  -17.9976 C   0  0  0  0  0  0  0  0  0  0  0  0
   -1.4946   -9.3163  -18.6712 C   0  0  0  0  0  0  0  0  0  0  0  0
   -1.9031   -9.1799  -16.2080 C   0  0  0  0  0  0  0  0  0  0  0  0
   -2.9401   -8.8942  -18.9157 C   0  0  0  0  0  0  0  0  0  0  0  0
   -3.3458   -8.7651  -16.4902 C   0  0  0  0  0  0  0  0  0  0  0  0
    0.3989   -7.0609  -19.0153 C   0  0  0  0  0  0  0  0  0  0  0  0
    3.2698   -6.8786  -18.5052 C   0  0  0  0  0  0  0  0  0  0  0  0
   -6.6035  -12.4173  -16.8574 C   0  0  0  0  0  0  0  0  0  0  0  0
   -6.8888  -10.9339  -16.9579 C   0  0  0  0  0  0  0  0  0  0  0  0
    3.0348   -8.5087  -16.7471 N   0  0  0  0  0  0  0  0  0  0  0  0
    0.9103   -9.4927  -16.1757 N   0  0  0  0  0  0  0  0  0  0  0  0
   -1.0349   -8.8679  -17.3495 N   0  0  0  0  0  0  0  0  0  0  0  0
   -3.7952   -9.2544  -17.7915 N   0  0  0  0  0  0  0  0  0  0  0  0
    2.8653  -10.0919  -15.0236 N   0  0  0  0  0  0  0  0  0  0  0  0
   -5.3908  -10.3229  -19.1000 O   0  0  0  0  0  0  0  0  0  0  0  0
   -5.6571  -10.2120  -16.8323 O   0  0  0  0  0  0  0  0  0  0  0  0
   -1.4243  -10.4059  -18.7404 H   0  0  0  0  0  0  0  0  0  0  0  0
   -0.8472   -8.8900  -19.4439 H   0  0  0  0  0  0  0  0  0  0  0  0
   -1.5594   -8.6617  -15.3071 H   0  0  0  0  0  0  0  0  0  0  0  0
   -1.8528  -10.2544  -16.0082 H   0  0  0  0  0  0  0  0  0  0  0  0
   -2.9897   -7.8218  -19.0837 H   0  0  0  0  0  0  0  0  0  0  0  0
   -3.3363   -9.3977  -19.7955 H   0  0  0  0  0  0  0  0  0  0  0  0
   -4.0031   -9.1380  -15.7035 H   0  0  0  0  0  0  0  0  0  0  0  0
   -3.4341   -7.6760  -16.5068 H   0  0  0  0  0  0  0  0  0  0  0  0
    0.3905   -7.5931  -19.9765 H   0  0  0  0  0  0  0  0  0  0  0  0
    0.9340   -6.1156  -19.1824 H   0  0  0  0  0  0  0  0  0  0  0  0
   -0.6381   -6.8270  -18.7409 H   0  0  0  0  0  0  0  0  0  0  0  0
    3.3326   -5.8849  -18.0442 H   0  0  0  0  0  0  0  0  0  0  0  0
    2.8660   -6.7369  -19.5157 H   0  0  0  0  0  0  0  0  0  0  0  0
    4.2828   -7.2894  -18.5885 H   0  0  0  0  0  0  0  0  0  0  0  0
   -5.9271  -12.7396  -17.6541 H   0  0  0  0  0  0  0  0  0  0  0  0
   -6.1510  -12.6584  -15.8901 H   0  0  0  0  0  0  0  0  0  0  0  0
   -7.5315  -12.9937  -16.9271 H   0  0  0  0  0  0  0  0  0  0  0  0
   -7.5655  -10.6181  -16.1586 H   0  0  0  0  0  0  0  0  0  0  0  0
   -7.3404  -10.6940  -17.9255 H   0  0  0  0  0  0  0  0  0  0  0  0
    3.8574  -10.0388  -14.9192 H   0  0  0  0  0  0  0  0  0  0  0  0
    2.3214  -10.7501  -14.5050 H   0  0  0  0  0  0  0  0  0  0  0  0
  1  2  1  0  0  0  0
  1  3  2  0  0  0  0
  1 10  1  0  0  0  0
  2 11  1  0  0  0  0
  2 14  2  0  0  0  0
  3 15  1  0  0  0  0
  3 16  1  0  0  0  0
  4 14  1  0  0  0  0
  4 15  2  0  0  0  0
  4 18  1  0  0  0  0
  5 17  1  0  0  0  0
  5 19  2  0  0  0  0
  5 20  1  0  0  0  0
  6  8  1  0  0  0  0
  6 16  1  0  0  0  0
  7  9  1  0  0  0  0
  7 16  1  0  0  0  0
  8 17  1  0  0  0  0
  9 17  1  0  0  0  0
 12 13  1  0  0  0  0
 13 20  1  0  0  0  0
  6 21  1  0  0  0  0
  6 22  1  0  0  0  0
  7 23  1  0  0  0  0
  7 24  1  0  0  0  0
  8 25  1  0  0  0  0
  8 26  1  0  0  0  0
  9 27  1  0  0  0  0
  9 28  1  0  0  0  0
 10 29  1  0  0  0  0
 10 30  1  0  0  0  0
 10 31  1  0  0  0  0
 11 32  1  0  0  0  0
 11 33  1  0  0  0  0
 11 34  1  0  0  0  0
 12 35  1  0  0  0  0
 12 36  1  0  0  0  0
 12 37  1  0  0  0  0
 13 38  1  0  0  0  0
 13 39  1  0  0  0  0
 18 40  1  0  0  0  0
 18 41  1  0  0  0  0
M  END
> <HYBRID receptor title>
27_FRAG(A) > 95F(A-200)

> <HYBRID receptor filename>
data/docking/pairs/27_frag.oedu

> <HYBRID Chemgauss4 score>
-13.864588

> <HYBRID receptor title>
27_FRAG(A) > 95F(A-200)

> <HYBRID receptor filename>
data/docking/pairs/27_frag.oedu

> <Dock Type>
Hybrid

$$$$
MOL0029
  -OEChem-08212416293D

 39 40  0     0  0  0  0  0  0999 V2000
    0.7433   -7.5377  -17.1102 C   0  0  0  0  0  0  0  0  0  0  0  0
    2.1134   -7.5478  -17.2737 C   0  0  0  0  0  0  0  0  0  0  0  0
    0.2306   -8.5312  -16.3016 C   0  0  0  0  0  0  0  0  0  0  0  0
    2.3103   -9.3722  -15.9315 C   0  0  0  0  0  0  0  0  0  0  0  0
   -3.9882   -8.7807  -15.5885 C   0  0  0  0  0  0  0  0  0  0  0  0
   -3.3409   -9.4881  -16.7712 C   0  0  0  0  0  0  0  0  0  0  0  0
   -3.2119   -7.5194  -15.2352 C   0  0  0  0  0  0  0  0  0  0  0  0
   -1.8665   -9.7860  -16.5119 C   0  0  0  0  0  0  0  0  0  0  0  0
   -1.7350   -7.8148  -14.9792 C   0  0  0  0  0  0  0  0  0  0  0  0
    2.7822   -6.5192  -18.1250 C   0  0  0  0  0  0  0  0  0  0  0  0
   -1.0405   -8.1395  -19.4794 C   0  0  0  0  0  0  0  0  0  0  0  0
   -0.1173   -6.5155  -17.7671 C   0  0  0  0  0  0  0  0  0  0  0  0
   -0.3364   -6.8102  -19.2586 C   0  0  0  0  0  0  0  0  0  0  0  0
    2.9302   -8.4537  -16.6970 N   0  0  0  0  0  0  0  0  0  0  0  0
    0.9878   -9.4686  -15.6943 N   0  0  0  0  0  0  0  0  0  0  0  0
   -1.1546   -8.5709  -16.0943 N   0  0  0  0  0  0  0  0  0  0  0  0
    3.1345  -10.3374  -15.3129 N   0  0  0  0  0  0  0  0  0  0  0  0
   -5.0260   -8.5246  -15.8297 H   0  0  0  0  0  0  0  0  0  0  0  0
   -4.0137   -9.4540  -14.7231 H   0  0  0  0  0  0  0  0  0  0  0  0
   -3.8731  -10.4239  -16.9771 H   0  0  0  0  0  0  0  0  0  0  0  0
   -3.4351   -8.8650  -17.6695 H   0  0  0  0  0  0  0  0  0  0  0  0
   -3.3015   -6.7922  -16.0519 H   0  0  0  0  0  0  0  0  0  0  0  0
   -3.6518   -7.0531  -14.3464 H   0  0  0  0  0  0  0  0  0  0  0  0
   -1.7748  -10.5542  -15.7330 H   0  0  0  0  0  0  0  0  0  0  0  0
   -1.4217  -10.1909  -17.4296 H   0  0  0  0  0  0  0  0  0  0  0  0
   -1.2037   -6.8642  -14.8456 H   0  0  0  0  0  0  0  0  0  0  0  0
   -1.6286   -8.3874  -14.0487 H   0  0  0  0  0  0  0  0  0  0  0  0
    3.0619   -5.6369  -17.5358 H   0  0  0  0  0  0  0  0  0  0  0  0
    2.1154   -6.1714  -18.9241 H   0  0  0  0  0  0  0  0  0  0  0  0
    3.6878   -6.9349  -18.5823 H   0  0  0  0  0  0  0  0  0  0  0  0
   -2.0069   -8.1460  -18.9652 H   0  0  0  0  0  0  0  0  0  0  0  0
   -1.2216   -8.3154  -20.5444 H   0  0  0  0  0  0  0  0  0  0  0  0
   -0.4425   -8.9697  -19.0905 H   0  0  0  0  0  0  0  0  0  0  0  0
    0.3278   -5.5125  -17.6543 H   0  0  0  0  0  0  0  0  0  0  0  0
   -1.0946   -6.4551  -17.2594 H   0  0  0  0  0  0  0  0  0  0  0  0
    0.6280   -6.8237  -19.7807 H   0  0  0  0  0  0  0  0  0  0  0  0
   -0.9313   -6.0092  -19.7132 H   0  0  0  0  0  0  0  0  0  0  0  0
    4.1147  -10.3343  -15.5056 H   0  0  0  0  0  0  0  0  0  0  0  0
    2.7107  -11.0682  -14.7796 H   0  0  0  0  0  0  0  0  0  0  0  0
  1  2  1  0  0  0  0
  1  3  2  0  0  0  0
  1 12  1  0  0  0  0
  2 10  1  0  0  0  0
  2 14  2  0  0  0  0
  3 15  1  0  0  0  0
  3 16  1  0  0  0  0
  4 14  1  0  0  0  0
  4 15  2  0  0  0  0
  4 17  1  0  0  0  0
  5  6  1  0  0  0  0
  5  7  1  0  0  0  0
  6  8  1  0  0  0  0
  7  9  1  0  0  0  0
  8 16  1  0  0  0  0
  9 16  1  0  0  0  0
 11 13  1  0  0  0  0
 12 13  1  0  0  0  0
  5 18  1  0  0  0  0
  5 19  1  0  0  0  0
  6 20  1  0  0  0  0
  6 21  1  0  0  0  0
  7 22  1  0  0  0  0
  7 23  1  0  0  0  0
  8 24  1  0  0  0  0
  8 25  1  0  0  0  0
  9 26  1  0  0  0  0
  9 27  1  0  0  0  0
 10 28  1  0  0  0  0
 10 29  1  0  0  0  0
 10 30  1  0  0  0  0
 11 31  1  0  0  0  0
 11 32  1  0  0  0  0
 11 33  1  0  0  0  0
 12 34  1  0  0  0  0
 12 35  1  0  0  0  0
 13 36  1  0  0  0  0
 13 37  1  0  0  0  0
 17 38  1  0  0  0  0
 17 39  1  0  0  0  0
M  END
> <HYBRID receptor title>
27_FRAG(A) > 95F(A-200)

> <HYBRID receptor filename>
data/docking/pairs/27_frag.oedu

> <HYBRID Chemgauss4 score>
-13.710193

> <HYBRID receptor title>
27_FRAG(A) > 95F(A-200)

> <HYBRID receptor filename>
data/docking/pairs/27_frag.oedu

> <Dock Type>
Hybrid

$$$$
MOL0017
  -OEChem-08212416293D

 45 47  0     0  0  0  0  0  0999 V2000
   -7.9569  -10.0064  -18.2538 C   0  0  0  0  0  0  0  0  0  0  0  0
   -7.4731   -8.7700  -17.8260 C   0  0  0  0  0  0  0  0  0  0  0  0
   -7.0680  -11.0461  -18.5263 C   0  0  0  0  0  0  0  0  0  0  0  0
   -6.1008   -8.5734  -17.6705 C   0  0  0  0  0  0  0  0  0  0  0  0
   -5.6957  -10.8495  -18.3708 C   0  0  0  0  0  0  0  0  0  0  0  0
    0.9730   -7.8410  -18.0548 C   0  0  0  0  0  0  0  0  0  0  0  0
   -5.2119   -9.6132  -17.9430 C   0  0  0  0  0  0  0  0  0  0  0  0
    2.3304   -7.6966  -17.8532 C   0  0  0  0  0  0  0  0  0  0  0  0
    0.3593   -8.8254  -17.3078 C   0  0  0  0  0  0  0  0  0  0  0  0
    2.3323   -9.3765  -16.3213 C   0  0  0  0  0  0  0  0  0  0  0  0
   -3.3288   -8.4782  -16.7934 C   0  0  0  0  0  0  0  0  0  0  0  0
   -2.8844  -10.1454  -18.6175 C   0  0  0  0  0  0  0  0  0  0  0  0
   -1.9219   -8.8611  -16.3330 C   0  0  0  0  0  0  0  0  0  0  0  0
   -1.5709   -9.3763  -18.7654 C   0  0  0  0  0  0  0  0  0  0  0  0
    3.1018   -6.6617  -18.6042 C   0  0  0  0  0  0  0  0  0  0  0  0
   -0.5795   -5.8906  -18.3203 C   0  0  0  0  0  0  0  0  0  0  0  0
    0.2277   -6.9840  -19.0176 C   0  0  0  0  0  0  0  0  0  0  0  0
    3.0443   -8.4500  -16.9911 N   0  0  0  0  0  0  0  0  0  0  0  0
    1.0109   -9.6150  -16.4286 N   0  0  0  0  0  0  0  0  0  0  0  0
   -3.8409   -9.4171  -17.7882 N   0  0  0  0  0  0  0  0  0  0  0  0
   -1.0118   -9.0166  -17.4652 N   0  0  0  0  0  0  0  0  0  0  0  0
    3.0475  -10.1844  -15.4108 N   0  0  0  0  0  0  0  0  0  0  0  0
   -9.0251  -10.1590  -18.3757 H   0  0  0  0  0  0  0  0  0  0  0  0
   -8.1653   -7.9604  -17.6135 H   0  0  0  0  0  0  0  0  0  0  0  0
   -7.4447  -12.0089  -18.8594 H   0  0  0  0  0  0  0  0  0  0  0  0
   -5.7352   -7.6055  -17.3376 H   0  0  0  0  0  0  0  0  0  0  0  0
   -5.0115  -11.6667  -18.5856 H   0  0  0  0  0  0  0  0  0  0  0  0
   -3.9941   -8.4605  -15.9214 H   0  0  0  0  0  0  0  0  0  0  0  0
   -3.3157   -7.4650  -17.2152 H   0  0  0  0  0  0  0  0  0  0  0  0
   -3.2960  -10.3344  -19.6171 H   0  0  0  0  0  0  0  0  0  0  0  0
   -2.6946  -11.1251  -18.1619 H   0  0  0  0  0  0  0  0  0  0  0  0
   -1.5572   -8.0950  -15.6369 H   0  0  0  0  0  0  0  0  0  0  0  0
   -1.9557   -9.8049  -15.7749 H   0  0  0  0  0  0  0  0  0  0  0  0
   -0.8558   -9.9977  -19.3183 H   0  0  0  0  0  0  0  0  0  0  0  0
   -1.7415   -8.4684  -19.3583 H   0  0  0  0  0  0  0  0  0  0  0  0
    3.1243   -5.7099  -18.0590 H   0  0  0  0  0  0  0  0  0  0  0  0
    2.6460   -6.4593  -19.5817 H   0  0  0  0  0  0  0  0  0  0  0  0
    4.1333   -6.9975  -18.7628 H   0  0  0  0  0  0  0  0  0  0  0  0
    0.0670   -5.2612  -17.6991 H   0  0  0  0  0  0  0  0  0  0  0  0
   -1.3488   -6.3242  -17.6726 H   0  0  0  0  0  0  0  0  0  0  0  0
   -1.0763   -5.2474  -19.0532 H   0  0  0  0  0  0  0  0  0  0  0  0
   -0.4537   -7.5954  -19.6316 H   0  0  0  0  0  0  0  0  0  0  0  0
    0.9221   -6.5154  -19.7350 H   0  0  0  0  0  0  0  0  0  0  0  0
    4.0383  -10.0767  -15.3403 H   0  0  0  0  0  0  0  0  0  0  0  0
    2.5681  -10.9189  -14.9325 H   0  0  0  0  0  0  0  0  0  0  0  0
  1  2  1  0  0  0  0
  1  3  2  0  0  0  0
  2  4  2  0  0  0  0
  3  5  1  0  0  0  0
  4  7  1  0  0  0  0
  5  7  2  0  0  0  0
  6  8  1  0  0  0  0
  6  9  2  0  0  0  0
  6 17  1  0  0  0  0
  7 20  1  0  0  0  0
  8 15  1  0  0  0  0
  8 18  2  0  0  0  0
  9 19  1  0  0  0  0
  9 21  1  0  0  0  0
 10 18  1  0  0  0  0
 10 19  2  0  0  0  0
 10 22  1  0  0  0  0
 11 13  1  0  0  0  0
 11 20  1  0  0  0  0
 12 14  1  0  0  0  0
 12 20  1  0  0  0  0
 13 21  1  0  0  0  0
 14 21  1  0  0  0  0
 16 17  1  0  0  0  0
  1 23  1  0  0  0  0
  2 24  1  0  0  0  0
  3 25  1  0  0  0  0
  4 26  1  0  0  0  0
  5 27  1  0  0  0  0
 11 28  1  0  0  0  0
 11 29  1  0  0  0  0
 12 30  1  0  0  0  0
 12 31  1  0  0  0  0
 13 32  1  0  0  0  0
 13 33  1  0  0  0  0
 14 34  1  0  0  0  0
 14 35  1  0  0  0  0
 15 36  1  0  0  0  0
 15 37  1  0  0  0  0
 15 38  1  0  0  0  0
 16 39  1  0  0  0  0
 16 40  1  0  0  0  0
 16 41  1  0  0  0  0
 17 42  1  0  0  0  0
 17 43  1  0  0  0  0
 22 44  1  0  0  0  0
 22 45  1  0  0  0  0
M  END
> <HYBRID receptor title>
27_FRAG(A) > 95F(A-200)

> <HYBRID receptor filename>
data/docking/pairs/27_frag.oedu

> <HYBRID Chemgauss4 score>
-13.703422

> <HYBRID receptor title>
27_FRAG(A) > 95F(A-200)

> <HYBRID receptor filename>
data/docking/pairs/27_frag.oedu

> <Dock Type>
Hybrid

$$$$
MOL0004
  -OEChem-08212416293D

 36 37  0     0  0  0  0  0  0999 V2000
    0.8242   -7.8546  -17.3483 C   0  0  0  0  0  0  0  0  0  0  0  0
    2.2020   -7.7842  -17.3239 C   0  0  0  0  0  0  0  0  0  0  0  0
    0.2575   -8.7743  -16.4899 C   0  0  0  0  0  0  0  0  0  0  0  0
    2.3068   -9.4070  -15.7351 C   0  0  0  0  0  0  0  0  0  0  0  0
   -3.1761   -9.2629  -14.4888 C   0  0  0  0  0  0  0  0  0  0  0  0
   -2.4798   -7.9147  -14.6800 C   0  0  0  0  0  0  0  0  0  0  0  0
   -2.3010  -10.4232  -14.9640 C   0  0  0  0  0  0  0  0  0  0  0  0
   -1.9667   -7.7380  -16.1117 C   0  0  0  0  0  0  0  0  0  0  0  0
   -1.8007  -10.1884  -16.3884 C   0  0  0  0  0  0  0  0  0  0  0  0
    2.9271   -6.8237  -18.2080 C   0  0  0  0  0  0  0  0  0  0  0  0
    0.0251   -7.4743  -19.6938 C   0  0  0  0  0  0  0  0  0  0  0  0
    0.0105   -6.9888  -18.2456 C   0  0  0  0  0  0  0  0  0  0  0  0
    2.9774   -8.5484  -16.5268 N   0  0  0  0  0  0  0  0  0  0  0  0
    0.9714   -9.5702  -15.6665 N   0  0  0  0  0  0  0  0  0  0  0  0
   -1.1290   -8.8888  -16.4668 N   0  0  0  0  0  0  0  0  0  0  0  0
    3.0867  -10.2240  -14.8879 N   0  0  0  0  0  0  0  0  0  0  0  0
   -3.4312   -9.4010  -13.4278 H   0  0  0  0  0  0  0  0  0  0  0  0
   -4.1270   -9.2679  -15.0437 H   0  0  0  0  0  0  0  0  0  0  0  0
   -3.1766   -7.1050  -14.4385 H   0  0  0  0  0  0  0  0  0  0  0  0
   -1.6405   -7.8334  -13.9792 H   0  0  0  0  0  0  0  0  0  0  0  0
   -1.4472  -10.5357  -14.2901 H   0  0  0  0  0  0  0  0  0  0  0  0
   -2.8725  -11.3530  -14.9228 H   0  0  0  0  0  0  0  0  0  0  0  0
   -2.8100   -7.6644  -16.7991 H   0  0  0  0  0  0  0  0  0  0  0  0
   -1.3917   -6.8138  -16.1667 H   0  0  0  0  0  0  0  0  0  0  0  0
   -1.1113  -10.9926  -16.6565 H   0  0  0  0  0  0  0  0  0  0  0  0
   -2.6432  -10.2142  -17.0847 H   0  0  0  0  0  0  0  0  0  0  0  0
    3.0706   -5.8565  -17.7103 H   0  0  0  0  0  0  0  0  0  0  0  0
    2.3626   -6.6286  -19.1286 H   0  0  0  0  0  0  0  0  0  0  0  0
    3.9103   -7.2255  -18.4799 H   0  0  0  0  0  0  0  0  0  0  0  0
   -0.3317   -8.5075  -19.7650 H   0  0  0  0  0  0  0  0  0  0  0  0
    1.0380   -7.4394  -20.1086 H   0  0  0  0  0  0  0  0  0  0  0  0
   -0.6192   -6.8490  -20.3196 H   0  0  0  0  0  0  0  0  0  0  0  0
    0.3747   -5.9488  -18.2131 H   0  0  0  0  0  0  0  0  0  0  0  0
   -1.0336   -6.9411  -17.8934 H   0  0  0  0  0  0  0  0  0  0  0  0
    4.0827  -10.1729  -14.9462 H   0  0  0  0  0  0  0  0  0  0  0  0
    2.6325  -10.9116  -14.3231 H   0  0  0  0  0  0  0  0  0  0  0  0
  1  2  1  0  0  0  0
  1  3  2  0  0  0  0
  1 12  1  0  0  0  0
  2 10  1  0  0  0  0
  2 13  2  0  0  0  0
  3 14  1  0  0  0  0
  3 15  1  0  0  0  0
  4 13  1  0  0  0  0
  4 14  2  0  0  0  0
  4 16  1  0  0  0  0
  5  6  1  0  0  0  0
  5  7  1  0  0  0  0
  6  8  1  0  0  0  0
  7  9  1  0  0  0  0
  8 15  1  0  0  0  0
  9 15  1  0  0  0  0
 11 12  1  0  0  0  0
  5 17  1  0  0  0  0
  5 18  1  0  0  0  0
  6 19  1  0  0  0  0
  6 20  1  0  0  0  0
  7 21  1  0  0  0  0
  7 22  1  0  0  0  0
  8 23  1  0  0  0  0
  8 24  1  0  0  0  0
  9 25  1  0  0  0  0
  9 26  1  0  0  0  0
 10 27  1  0  0  0  0
 10 28  1  0  0  0  0
 10 29  1  0  0  0  0
 11 30  1  0  0  0  0
 11 31  1  0  0  0  0
 11 32  1  0  0  0  0
 12 33  1  0  0  0  0
 12 34  1  0  0  0  0
 16 35  1  0  0  0  0
 16 36  1  0  0  0  0
M  END
> <HYBRID receptor title>
27_FRAG(A) > 95F(A-200)

> <HYBRID receptor filename>
data/docking/pairs/27_frag.oedu

> <HYBRID Chemgauss4 score>
-13.575449

> <HYBRID receptor title>
27_FRAG(A) > 95F(A-200)

> <HYBRID receptor filename>
data/docking/pairs/27_frag.oedu

> <Dock Type>
Hybrid

$$$$
MOL0038
  -OEChem-08212416293D

 28 29  0     0  0  0  0  0  0999 V2000
    0.9155   -7.7834  -17.8572 C   0  0  0  0  0  0  0  0  0  0  0  0
    2.2688   -7.6223  -17.6411 C   0  0  0  0  0  0  0  0  0  0  0  0
    0.3055   -8.7733  -17.1145 C   0  0  0  0  0  0  0  0  0  0  0  0
    2.2739   -9.2984  -16.1051 C   0  0  0  0  0  0  0  0  0  0  0  0
   -1.5920   -9.3832  -18.5882 C   0  0  0  0  0  0  0  0  0  0  0  0
   -1.8271   -9.4874  -16.1164 C   0  0  0  0  0  0  0  0  0  0  0  0
   -3.0901   -9.1076  -18.6493 C   0  0  0  0  0  0  0  0  0  0  0  0
   -3.3122   -9.2074  -16.3156 C   0  0  0  0  0  0  0  0  0  0  0  0
    3.0575   -6.5855  -18.3725 C   0  0  0  0  0  0  0  0  0  0  0  0
    2.9821   -8.3651  -16.7693 N   0  0  0  0  0  0  0  0  0  0  0  0
    0.9567   -9.5529  -16.2262 N   0  0  0  0  0  0  0  0  0  0  0  0
   -1.0650   -9.0002  -17.2742 N   0  0  0  0  0  0  0  0  0  0  0  0
    2.9881  -10.0936  -15.1827 N   0  0  0  0  0  0  0  0  0  0  0  0
   -3.7630   -9.7362  -17.5611 O   0  0  0  0  0  0  0  0  0  0  0  0
   -0.0278   -6.7082  -19.0987 Br  0  0  0  0  0  0  0  0  0  0  0  0
   -1.4123  -10.4543  -18.7466 H   0  0  0  0  0  0  0  0  0  0  0  0
   -1.0856   -8.8284  -19.3868 H   0  0  0  0  0  0  0  0  0  0  0  0
   -1.4835   -9.0053  -15.1936 H   0  0  0  0  0  0  0  0  0  0  0  0
   -1.6706  -10.5693  -16.0175 H   0  0  0  0  0  0  0  0  0  0  0  0
   -3.3001   -8.0312  -18.6423 H   0  0  0  0  0  0  0  0  0  0  0  0
   -3.5033   -9.5162  -19.5772 H   0  0  0  0  0  0  0  0  0  0  0  0
   -3.8891   -9.6904  -15.5203 H   0  0  0  0  0  0  0  0  0  0  0  0
   -3.5278   -8.1330  -16.2701 H   0  0  0  0  0  0  0  0  0  0  0  0
    3.0679   -5.6354  -17.8243 H   0  0  0  0  0  0  0  0  0  0  0  0
    2.6233   -6.3809  -19.3591 H   0  0  0  0  0  0  0  0  0  0  0  0
    4.0918   -6.9218  -18.5087 H   0  0  0  0  0  0  0  0  0  0  0  0
    3.9764   -9.9727  -15.1002 H   0  0  0  0  0  0  0  0  0  0  0  0
    2.5124  -10.8327  -14.7077 H   0  0  0  0  0  0  0  0  0  0  0  0
  1  2  2  0  0  0  0
  1  3  1  0  0  0  0
  1 15  1  0  0  0  0
  2  9  1  0  0  0  0
  2 10  1  0  0  0  0
  3 11  2  0  0  0  0
  3 12  1  0  0  0  0
  4 10  2  0  0  0  0
  4 11  1  0  0  0  0
  4 13  1  0  0  0  0
  5  7  1  0  0  0  0
  5 12  1  0  0  0  0
  6  8  1  0  0  0  0
  6 12  1  0  0  0  0
  7 14  1  0  0  0  0
  8 14  1  0  0  0  0
  5 16  1  0  0  0  0
  5 17  1  0  0  0  0
  6 18  1  0  0  0  0
  6 19  1  0  0  0  0
  7 20  1  0  0  0  0
  7 21  1  0  0  0  0
  8 22  1  0  0  0  0
  8 23  1  0  0  0  0
  9 24  1  0  0  0  0
  9 25  1  0  0  0  0
  9 26  1  0  0  0  0
 13 27  1  0  0  0  0
 13 28  1  0  0  0  0
M  END
> <HYBRID receptor title>
27_FRAG(A) > 95F(A-200)

> <HYBRID receptor filename>
data/docking/pairs/27_frag.oedu

> <HYBRID Chemgauss4 score>
-13.542680

> <HYBRID receptor title>
27_FRAG(A) > 95F(A-200)

> <HYBRID receptor filename>
data/docking/pairs/27_frag.oedu

> <Dock Type>
Hybrid

$$$$
MOL0022
  -OEChem-08212416293D

 33 34  0     0  0  0  0  0  0999 V2000
    0.8868   -7.7597  -17.7434 C   0  0  0  0  0  0  0  0  0  0  0  0
    2.2558   -7.6378  -17.6213 C   0  0  0  0  0  0  0  0  0  0  0  0
    0.2799   -8.6104  -16.8425 C   0  0  0  0  0  0  0  0  0  0  0  0
    2.2796   -9.0919  -15.8738 C   0  0  0  0  0  0  0  0  0  0  0  0
   -3.9540   -9.2523  -17.0202 C   0  0  0  0  0  0  0  0  0  0  0  0
   -3.0561   -9.5519  -18.2126 C   0  0  0  0  0  0  0  0  0  0  0  0
   -3.3728   -8.1153  -16.1908 C   0  0  0  0  0  0  0  0  0  0  0  0
   -1.6220   -9.8442  -17.7793 C   0  0  0  0  0  0  0  0  0  0  0  0
   -1.9360   -8.4041  -15.7594 C   0  0  0  0  0  0  0  0  0  0  0  0
    0.1229   -7.0159  -18.7828 C   0  0  0  0  0  0  0  0  0  0  0  0
    3.0216   -6.7433  -18.5397 C   0  0  0  0  0  0  0  0  0  0  0  0
    2.9866   -8.2916  -16.6945 N   0  0  0  0  0  0  0  0  0  0  0  0
    0.9482   -9.2954  -15.8912 N   0  0  0  0  0  0  0  0  0  0  0  0
   -1.1100   -8.7730  -16.9143 N   0  0  0  0  0  0  0  0  0  0  0  0
    3.0125   -9.7932  -14.8916 N   0  0  0  0  0  0  0  0  0  0  0  0
   -4.9583   -8.9851  -17.3675 H   0  0  0  0  0  0  0  0  0  0  0  0
   -4.0549  -10.1499  -16.3979 H   0  0  0  0  0  0  0  0  0  0  0  0
   -3.4535  -10.4099  -18.7668 H   0  0  0  0  0  0  0  0  0  0  0  0
   -3.0624   -8.6981  -18.9020 H   0  0  0  0  0  0  0  0  0  0  0  0
   -3.3982   -7.1858  -16.7734 H   0  0  0  0  0  0  0  0  0  0  0  0
   -3.9956   -7.9504  -15.3044 H   0  0  0  0  0  0  0  0  0  0  0  0
   -1.5844  -10.8017  -17.2435 H   0  0  0  0  0  0  0  0  0  0  0  0
   -0.9957   -9.9417  -18.6749 H   0  0  0  0  0  0  0  0  0  0  0  0
   -1.5291   -7.5108  -15.2694 H   0  0  0  0  0  0  0  0  0  0  0  0
   -1.9279   -9.2185  -15.0234 H   0  0  0  0  0  0  0  0  0  0  0  0
    0.0444   -7.5941  -19.7139 H   0  0  0  0  0  0  0  0  0  0  0  0
    0.6154   -6.0678  -19.0403 H   0  0  0  0  0  0  0  0  0  0  0  0
   -0.8918   -6.7930  -18.4281 H   0  0  0  0  0  0  0  0  0  0  0  0
    3.0978   -5.7274  -18.1324 H   0  0  0  0  0  0  0  0  0  0  0  0
    2.5267   -6.6600  -19.5156 H   0  0  0  0  0  0  0  0  0  0  0  0
    4.0341   -7.1343  -18.6941 H   0  0  0  0  0  0  0  0  0  0  0  0
    4.0082   -9.7123  -14.8787 H   0  0  0  0  0  0  0  0  0  0  0  0
    2.5344  -10.4379  -14.2968 H   0  0  0  0  0  0  0  0  0  0  0  0
  1  2  2  0  0  0  0
  1  3  1  0  0  0  0
  1 10  1  0  0  0  0
  2 11  1  0  0  0  0
  2 12  1  0  0  0  0
  3 13  2  0  0  0  0
  3 14  1  0  0  0  0
  4 12  2  0  0  0  0
  4 13  1  0  0  0  0
  4 15  1  0  0  0  0
  5  6  1  0  0  0  0
  5  7  1  0  0  0  0
  6  8  1  0  0  0  0
  7  9  1  0  0  0  0
  8 14  1  0  0  0  0
  9 14  1  0  0  0  0
  5 16  1  0  0  0  0
  5 17  1  0  0  0  0
  6 18  1  0  0  0  0
  6 19  1  0  0  0  0
  7 20  1  0  0  0  0
  7 21  1  0  0  0  0
  8 22  1  0  0  0  0
  8 23  1  0  0  0  0
  9 24  1  0  0  0  0
  9 25  1  0  0  0  0
 10 26  1  0  0  0  0
 10 27  1  0  0  0  0
 10 28  1  0  0  0  0
 11 29  1  0  0  0  0
 11 30  1  0  0  0  0
 11 31  1  0  0  0  0
 15 32  1  0  0  0  0
 15 33  1  0  0  0  0
M  END
> <HYBRID receptor title>
27_FRAG(A) > 95F(A-200)

> <HYBRID receptor filename>
data/docking/pairs/27_frag.oedu

> <HYBRID Chemgauss4 score>
-13.424040

> <HYBRID receptor title>
27_FRAG(A) > 95F(A-200)

> <HYBRID receptor filename>
data/docking/pairs/27_frag.oedu

> <Dock Type>
Hybrid

$$$$
MOL0064
  -OEChem-08212416293D

 40 41  0     1  0  0  0  0  0999 V2000
    0.9360   -8.0323  -17.6059 C   0  0  0  0  0  0  0  0  0  0  0  0
    2.2824   -7.8826  -17.3440 C   0  0  0  0  0  0  0  0  0  0  0  0
    0.2959   -9.0267  -16.8951 C   0  0  0  0  0  0  0  0  0  0  0  0
    2.2270   -9.5762  -15.8283 C   0  0  0  0  0  0  0  0  0  0  0  0
   -1.5581  -10.1455  -18.1359 C   0  0  0  0  0  0  0  0  0  0  0  0
   -2.0578   -8.4159  -16.4018 C   0  0  0  0  0  0  0  0  0  0  0  0
   -2.9155  -10.7335  -17.7224 C   0  0  1  0  0  0  0  0  0  0  0  0
   -3.3832   -8.4349  -17.1665 C   0  0  2  0  0  0  0  0  0  0  0  0
    3.0800   -6.8369  -18.0514 C   0  0  0  0  0  0  0  0  0  0  0  0
   -2.7791  -11.7727  -16.6116 C   0  0  0  0  0  0  0  0  0  0  0  0
   -4.4461   -7.6222  -16.4370 C   0  0  0  0  0  0  0  0  0  0  0  0
    0.5181   -7.5791  -20.0359 C   0  0  0  0  0  0  0  0  0  0  0  0
    0.2285   -7.1706  -18.5928 C   0  0  0  0  0  0  0  0  0  0  0  0
    2.9623   -8.6400  -16.4581 N   0  0  0  0  0  0  0  0  0  0  0  0
    0.9129   -9.8207  -15.9952 N   0  0  0  0  0  0  0  0  0  0  0  0
   -1.0646   -9.2235  -17.1137 N   0  0  0  0  0  0  0  0  0  0  0  0
    2.9064  -10.3885  -14.8945 N   0  0  0  0  0  0  0  0  0  0  0  0
   -3.8785   -9.7653  -17.2992 O   0  0  0  0  0  0  0  0  0  0  0  0
   -0.8252  -10.9572  -18.2661 H   0  0  0  0  0  0  0  0  0  0  0  0
   -1.6612   -9.6318  -19.1036 H   0  0  0  0  0  0  0  0  0  0  0  0
   -1.7086   -7.3808  -16.2950 H   0  0  0  0  0  0  0  0  0  0  0  0
   -2.1986   -8.8329  -15.3951 H   0  0  0  0  0  0  0  0  0  0  0  0
   -3.3599  -11.2835  -18.6088 H   0  0  0  0  0  0  0  0  0  0  0  0
   -3.2509   -8.0000  -18.1708 H   0  0  0  0  0  0  0  0  0  0  0  0
    3.0733   -5.8899  -17.4974 H   0  0  0  0  0  0  0  0  0  0  0  0
    2.6662   -6.6281  -19.0461 H   0  0  0  0  0  0  0  0  0  0  0  0
    4.1194   -7.1658  -18.1678 H   0  0  0  0  0  0  0  0  0  0  0  0
   -2.3545  -11.3122  -15.7195 H   0  0  0  0  0  0  0  0  0  0  0  0
   -2.1259  -12.5827  -16.9362 H   0  0  0  0  0  0  0  0  0  0  0  0
   -3.7578  -12.1860  -16.3641 H   0  0  0  0  0  0  0  0  0  0  0  0
   -4.6034   -8.0256  -15.4366 H   0  0  0  0  0  0  0  0  0  0  0  0
   -5.3874   -7.6606  -16.9855 H   0  0  0  0  0  0  0  0  0  0  0  0
   -4.1289   -6.5819  -16.3525 H   0  0  0  0  0  0  0  0  0  0  0  0
    0.2479   -8.6265  -20.2091 H   0  0  0  0  0  0  0  0  0  0  0  0
    1.5816   -7.4636  -20.2700 H   0  0  0  0  0  0  0  0  0  0  0  0
   -0.0524   -6.9613  -20.7363 H   0  0  0  0  0  0  0  0  0  0  0  0
    0.5121   -6.1141  -18.4561 H   0  0  0  0  0  0  0  0  0  0  0  0
   -0.8606   -7.2025  -18.4222 H   0  0  0  0  0  0  0  0  0  0  0  0
    3.8925  -10.2762  -14.7799 H   0  0  0  0  0  0  0  0  0  0  0  0
    2.4108  -11.1299  -14.4441 H   0  0  0  0  0  0  0  0  0  0  0  0
  1  2  1  0  0  0  0
  1  3  2  0  0  0  0
  1 13  1  0  0  0  0
  2  9  1  0  0  0  0
  2 14  2  0  0  0  0
  3 15  1  0  0  0  0
  3 16  1  0  0  0  0
  4 14  1  0  0  0  0
  4 15  2  0  0  0  0
  4 17  1  0  0  0  0
  5  7  1  0  0  0  0
  5 16  1  0  0  0  0
  6  8  1  0  0  0  0
  6 16  1  0  0  0  0
  7 10  1  0  0  0  0
  7 18  1  0  0  0  0
  8 11  1  0  0  0  0
  8 18  1  0  0  0  0
 12 13  1  0  0  0  0
  5 19  1  0  0  0  0
  5 20  1  0  0  0  0
  6 21  1  0  0  0  0
  6 22  1  0  0  0  0
  7 23  1  0  0  0  0
  8 24  1  0  0  0  0
  9 25  1  0  0  0  0
  9 26  1  0  0  0  0
  9 27  1  0  0  0  0
 10 28  1  0  0  0  0
 10 29  1  0  0  0  0
 10 30  1  0  0  0  0
 11 31  1  0  0  0  0
 11 32  1  0  0  0  0
 11 33  1  0  0  0  0
 12 34  1  0  0  0  0
 12 35  1  0  0  0  0
 12 36  1  0  0  0  0
 13 37  1  0  0  0  0
 13 38  1  0  0  0  0
 17 39  1  0  0  0  0
 17 40  1  0  0  0  0
M  END
> <HYBRID receptor title>
27_FRAG(A) > 95F(A-200)

> <HYBRID receptor filename>
data/docking/pairs/27_frag.oedu

> <HYBRID Chemgauss4 score>
-13.277347

> <HYBRID receptor title>
27_FRAG(A) > 95F(A-200)

> <HYBRID receptor filename>
data/docking/pairs/27_frag.oedu

> <Dock Type>
Hybrid

$$$$
MOL0015
  -OEChem-08212416293D

 35 36  0     0  0  0  0  0  0999 V2000
    0.9919   -7.6296  -17.4389 C   0  0  0  0  0  0  0  0  0  0  0  0
    2.3711   -7.5991  -17.4108 C   0  0  0  0  0  0  0  0  0  0  0  0
    0.3987   -8.5800  -16.6335 C   0  0  0  0  0  0  0  0  0  0  0  0
    2.4285   -9.3109  -15.9157 C   0  0  0  0  0  0  0  0  0  0  0  0
   -3.0828   -9.6955  -17.4290 C   0  0  0  0  0  0  0  0  0  0  0  0
   -3.2114   -7.6932  -16.1167 C   0  0  0  0  0  0  0  0  0  0  0  0
   -1.6252   -9.9205  -17.0294 C   0  0  0  0  0  0  0  0  0  0  0  0
   -1.7586   -7.8403  -15.6649 C   0  0  0  0  0  0  0  0  0  0  0  0
    3.1239   -6.6109  -18.2396 C   0  0  0  0  0  0  0  0  0  0  0  0
    0.2070   -7.0960  -19.7592 C   0  0  0  0  0  0  0  0  0  0  0  0
    0.2039   -6.6924  -18.2860 C   0  0  0  0  0  0  0  0  0  0  0  0
    3.1238   -8.4280  -16.6579 N   0  0  0  0  0  0  0  0  0  0  0  0
    1.0890   -9.4404  -15.8562 N   0  0  0  0  0  0  0  0  0  0  0  0
   -3.8253   -8.9905  -16.3874 N   0  0  0  0  0  0  0  0  0  0  0  0
   -0.9991   -8.6575  -16.6165 N   0  0  0  0  0  0  0  0  0  0  0  0
    3.1842  -10.1955  -15.1158 N   0  0  0  0  0  0  0  0  0  0  0  0
   -3.1348   -9.1400  -18.3741 H   0  0  0  0  0  0  0  0  0  0  0  0
   -3.5576  -10.6669  -17.6065 H   0  0  0  0  0  0  0  0  0  0  0  0
   -3.7807   -7.1900  -15.3274 H   0  0  0  0  0  0  0  0  0  0  0  0
   -3.2687   -7.0529  -17.0060 H   0  0  0  0  0  0  0  0  0  0  0  0
   -1.5740  -10.6435  -16.2044 H   0  0  0  0  0  0  0  0  0  0  0  0
   -1.0844  -10.3500  -17.8818 H   0  0  0  0  0  0  0  0  0  0  0  0
   -1.3103   -6.8427  -15.5797 H   0  0  0  0  0  0  0  0  0  0  0  0
   -1.7250   -8.3055  -14.6703 H   0  0  0  0  0  0  0  0  0  0  0  0
    3.2935   -5.6776  -17.6883 H   0  0  0  0  0  0  0  0  0  0  0  0
    2.5663   -6.3488  -19.1477 H   0  0  0  0  0  0  0  0  0  0  0  0
    4.0958   -7.0240  -18.5338 H   0  0  0  0  0  0  0  0  0  0  0  0
   -0.1782   -8.1133  -19.8883 H   0  0  0  0  0  0  0  0  0  0  0  0
    1.2211   -7.0661  -20.1715 H   0  0  0  0  0  0  0  0  0  0  0  0
   -0.4188   -6.4189  -20.3487 H   0  0  0  0  0  0  0  0  0  0  0  0
    0.5967   -5.6664  -18.1951 H   0  0  0  0  0  0  0  0  0  0  0  0
   -0.8390   -6.6356  -17.9315 H   0  0  0  0  0  0  0  0  0  0  0  0
   -4.7880   -8.8518  -16.6933 H   0  0  0  0  0  0  0  0  0  0  0  0
    4.1814  -10.1689  -15.1714 H   0  0  0  0  0  0  0  0  0  0  0  0
    2.7103  -10.9009  -14.5906 H   0  0  0  0  0  0  0  0  0  0  0  0
  1  2  1  0  0  0  0
  1  3  2  0  0  0  0
  1 11  1  0  0  0  0
  2  9  1  0  0  0  0
  2 12  2  0  0  0  0
  3 13  1  0  0  0  0
  3 15  1  0  0  0  0
  4 12  1  0  0  0  0
  4 13  2  0  0  0  0
  4 16  1  0  0  0  0
  5  7  1  0  0  0  0
  5 14  1  0  0  0  0
  6  8  1  0  0  0  0
  6 14  1  0  0  0  0
  7 15  1  0  0  0  0
  8 15  1  0  0  0  0
 10 11  1  0  0  0  0
  5 17  1  0  0  0  0
  5 18  1  0  0  0  0
  6 19  1  0  0  0  0
  6 20  1  0  0  0  0
  7 21  1  0  0  0  0
  7 22  1  0  0  0  0
  8 23  1  0  0  0  0
  8 24  1  0  0  0  0
  9 25  1  0  0  0  0
  9 26  1  0  0  0  0
  9 27  1  0  0  0  0
 10 28  1  0  0  0  0
 10 29  1  0  0  0  0
 10 30  1  0  0  0  0
 11 31  1  0  0  0  0
 11 32  1  0  0  0  0
 14 33  1  0  0  0  0
 16 34  1  0  0  0  0
 16 35  1  0  0  0  0
M  END
> <HYBRID receptor title>
27_FRAG(A) > 95F(A-200)

> <HYBRID receptor filename>
data/docking/pairs/27_frag.oedu

> <HYBRID Chemgauss4 score>
-13.185885

> <HYBRID receptor title>
27_FRAG(A) > 95F(A-200)

> <HYBRID receptor filename>
data/docking/pairs/27_frag.oedu

> <Dock Type>
Hybrid

$$$$
MOL0000
  -OEChem-08212416293D

 31 32  0     0  0  0  0  0  0999 V2000
    0.9785   -7.7722  -18.0353 C   0  0  0  0  0  0  0  0  0  0  0  0
    2.3300   -7.6107  -17.8085 C   0  0  0  0  0  0  0  0  0  0  0  0
    0.3633   -8.7637  -17.2990 C   0  0  0  0  0  0  0  0  0  0  0  0
    2.3242   -9.2894  -16.2753 C   0  0  0  0  0  0  0  0  0  0  0  0
   -1.9604   -7.8978  -17.2151 C   0  0  0  0  0  0  0  0  0  0  0  0
   -1.5932  -10.3082  -17.5205 C   0  0  0  0  0  0  0  0  0  0  0  0
   -2.7017   -8.2298  -15.9199 C   0  0  0  0  0  0  0  0  0  0  0  0
   -2.3334  -10.5525  -16.2102 C   0  0  0  0  0  0  0  0  0  0  0  0
    0.2407   -6.9253  -19.0127 C   0  0  0  0  0  0  0  0  0  0  0  0
    3.1024   -6.5668  -18.5459 C   0  0  0  0  0  0  0  0  0  0  0  0
    3.0370   -8.3546  -16.9325 N   0  0  0  0  0  0  0  0  0  0  0  0
    1.0081   -9.5444  -16.4070 N   0  0  0  0  0  0  0  0  0  0  0  0
   -0.9984   -8.9715  -17.4813 N   0  0  0  0  0  0  0  0  0  0  0  0
    3.0324  -10.0877  -15.3508 N   0  0  0  0  0  0  0  0  0  0  0  0
   -3.3053   -9.5247  -15.9940 O   0  0  0  0  0  0  0  0  0  0  0  0
   -2.6745   -7.8432  -18.0370 H   0  0  0  0  0  0  0  0  0  0  0  0
   -1.4568   -6.9384  -17.1104 H   0  0  0  0  0  0  0  0  0  0  0  0
   -0.8279  -11.0747  -17.6567 H   0  0  0  0  0  0  0  0  0  0  0  0
   -2.3005  -10.3621  -18.3522 H   0  0  0  0  0  0  0  0  0  0  0  0
   -2.0317   -8.1845  -15.0529 H   0  0  0  0  0  0  0  0  0  0  0  0
   -3.5011   -7.5002  -15.7552 H   0  0  0  0  0  0  0  0  0  0  0  0
   -2.8640  -11.5058  -16.2567 H   0  0  0  0  0  0  0  0  0  0  0  0
   -1.6457  -10.5940  -15.3608 H   0  0  0  0  0  0  0  0  0  0  0  0
    0.2467   -7.3725  -20.0163 H   0  0  0  0  0  0  0  0  0  0  0  0
    0.6988   -5.9308  -19.1073 H   0  0  0  0  0  0  0  0  0  0  0  0
   -0.8032   -6.7962  -18.6983 H   0  0  0  0  0  0  0  0  0  0  0  0
    3.1028   -5.6144  -18.0013 H   0  0  0  0  0  0  0  0  0  0  0  0
    2.6624   -6.3708  -19.5319 H   0  0  0  0  0  0  0  0  0  0  0  0
    4.1408   -6.8898  -18.6850 H   0  0  0  0  0  0  0  0  0  0  0  0
    4.0202   -9.9675  -15.2619 H   0  0  0  0  0  0  0  0  0  0  0  0
    2.5533  -10.8278  -14.8808 H   0  0  0  0  0  0  0  0  0  0  0  0
  1  2  2  0  0  0  0
  1  3  1  0  0  0  0
  1  9  1  0  0  0  0
  2 10  1  0  0  0  0
  2 11  1  0  0  0  0
  3 12  2  0  0  0  0
  3 13  1  0  0  0  0
  4 11  2  0  0  0  0
  4 12  1  0  0  0  0
  4 14  1  0  0  0  0
  5  7  1  0  0  0  0
  5 13  1  0  0  0  0
  6  8  1  0  0  0  0
  6 13  1  0  0  0  0
  7 15  1  0  0  0  0
  8 15  1  0  0  0  0
  5 16  1  0  0  0  0
  5 17  1  0  0  0  0
  6 18  1  0  0  0  0
  6 19  1  0  0  0  0
  7 20  1  0  0  0  0
  7 21  1  0  0  0  0
  8 22  1  0  0  0  0
  8 23  1  0  0  0  0
  9 24  1  0  0  0  0
  9 25  1  0  0  0  0
  9 26  1  0  0  0  0
 10 27  1  0  0  0  0
 10 28  1  0  0  0  0
 10 29  1  0  0  0  0
 14 30  1  0  0  0  0
 14 31  1  0  0  0  0
M  END
> <HYBRID receptor title>
27_FRAG(A) > 95F(A-200)

> <HYBRID receptor filename>
data/docking/pairs/27_frag.oedu

> <HYBRID Chemgauss4 score>
-13.120745

> <HYBRID receptor title>
27_FRAG(A) > 95F(A-200)

> <HYBRID receptor filename>
data/docking/pairs/27_frag.oedu

> <Dock Type>
Hybrid

$$$$
MOL0001
  -OEChem-08212416293D

 34 35  0     0  0  0  0  0  0999 V2000
    0.5236   -7.9738  -17.5361 C   0  0  0  0  0  0  0  0  0  0  0  0
    1.8929   -7.8067  -17.5021 C   0  0  0  0  0  0  0  0  0  0  0  0
    0.0135   -8.9074  -16.6575 C   0  0  0  0  0  0  0  0  0  0  0  0
    2.0939   -9.3751  -15.8685 C   0  0  0  0  0  0  0  0  0  0  0  0
   -1.9055  -10.4496  -16.9460 C   0  0  0  0  0  0  0  0  0  0  0  0
   -2.1876   -8.2914  -15.7466 C   0  0  0  0  0  0  0  0  0  0  0  0
   -3.3736  -10.3413  -17.3423 C   0  0  0  0  0  0  0  0  0  0  0  0
   -3.6402   -8.3043  -16.2087 C   0  0  0  0  0  0  0  0  0  0  0  0
    2.5585   -6.8220  -18.4062 C   0  0  0  0  0  0  0  0  0  0  0  0
   -0.2758   -7.7132  -19.8978 C   0  0  0  0  0  0  0  0  0  0  0  0
   -0.3391   -7.1913  -18.4636 C   0  0  0  0  0  0  0  0  0  0  0  0
    2.7113   -8.4932  -16.6778 N   0  0  0  0  0  0  0  0  0  0  0  0
    0.7725   -9.6291  -15.8066 N   0  0  0  0  0  0  0  0  0  0  0  0
   -1.3686   -9.1188  -16.6429 N   0  0  0  0  0  0  0  0  0  0  0  0
    2.9200  -10.1125  -14.9926 N   0  0  0  0  0  0  0  0  0  0  0  0
   -4.1146   -9.6423  -16.3450 O   0  0  0  0  0  0  0  0  0  0  0  0
   -1.8152  -11.0828  -16.0541 H   0  0  0  0  0  0  0  0  0  0  0  0
   -1.3413  -10.9203  -17.7597 H   0  0  0  0  0  0  0  0  0  0  0  0
   -1.8188   -7.2592  -15.7248 H   0  0  0  0  0  0  0  0  0  0  0  0
   -2.1253   -8.6999  -14.7297 H   0  0  0  0  0  0  0  0  0  0  0  0
   -3.4913   -9.8397  -18.3105 H   0  0  0  0  0  0  0  0  0  0  0  0
   -3.8054  -11.3428  -17.4374 H   0  0  0  0  0  0  0  0  0  0  0  0
   -4.2685   -7.8021  -15.4659 H   0  0  0  0  0  0  0  0  0  0  0  0
   -3.7642   -7.7692  -17.1579 H   0  0  0  0  0  0  0  0  0  0  0  0
    2.6292   -5.8342  -17.9340 H   0  0  0  0  0  0  0  0  0  0  0  0
    1.9912   -6.6916  -19.3364 H   0  0  0  0  0  0  0  0  0  0  0  0
    3.5699   -7.1613  -18.6587 H   0  0  0  0  0  0  0  0  0  0  0  0
   -0.5591   -8.7704  -19.9436 H   0  0  0  0  0  0  0  0  0  0  0  0
    0.7364   -7.6189  -20.3048 H   0  0  0  0  0  0  0  0  0  0  0  0
   -0.9557   -7.1515  -20.5459 H   0  0  0  0  0  0  0  0  0  0  0  0
   -0.0485   -6.1279  -18.4567 H   0  0  0  0  0  0  0  0  0  0  0  0
   -1.3875   -7.2072  -18.1216 H   0  0  0  0  0  0  0  0  0  0  0  0
    3.9106   -9.9936  -15.0440 H   0  0  0  0  0  0  0  0  0  0  0  0
    2.5090  -10.8148  -14.4130 H   0  0  0  0  0  0  0  0  0  0  0  0
  1  2  1  0  0  0  0
  1  3  2  0  0  0  0
  1 11  1  0  0  0  0
  2  9  1  0  0  0  0
  2 12  2  0  0  0  0
  3 13  1  0  0  0  0
  3 14  1  0  0  0  0
  4 12  1  0  0  0  0
  4 13  2  0  0  0  0
  4 15  1  0  0  0  0
  5  7  1  0  0  0  0
  5 14  1  0  0  0  0
  6  8  1  0  0  0  0
  6 14  1  0  0  0  0
  7 16  1  0  0  0  0
  8 16  1  0  0  0  0
 10 11  1  0  0  0  0
  5 17  1  0  0  0  0
  5 18  1  0  0  0  0
  6 19  1  0  0  0  0
  6 20  1  0  0  0  0
  7 21  1  0  0  0  0
  7 22  1  0  0  0  0
  8 23  1  0  0  0  0
  8 24  1  0  0  0  0
  9 25  1  0  0  0  0
  9 26  1  0  0  0  0
  9 27  1  0  0  0  0
 10 28  1  0  0  0  0
 10 29  1  0  0  0  0
 10 30  1  0  0  0  0
 11 31  1  0  0  0  0
 11 32  1  0  0  0  0
 15 33  1  0  0  0  0
 15 34  1  0  0  0  0
M  END
> <HYBRID receptor title>
27_FRAG(A) > 95F(A-200)

> <HYBRID receptor filename>
data/docking/pairs/27_frag.oedu

> <HYBRID Chemgauss4 score>
-13.099940

> <HYBRID receptor title>
27_FRAG(A) > 95F(A-200)

> <HYBRID receptor filename>
data/docking/pairs/27_frag.oedu

> <Dock Type>
Hybrid

$$$$
MOL0003
  -OEChem-08212416293D

 37 38  0     0  0  0  0  0  0999 V2000
    0.7966   -7.7471  -17.3722 C   0  0  0  0  0  0  0  0  0  0  0  0
    2.1735   -7.7377  -17.4629 C   0  0  0  0  0  0  0  0  0  0  0  0
    0.2624   -8.6596  -16.4859 C   0  0  0  0  0  0  0  0  0  0  0  0
    2.3365   -9.3980  -15.9183 C   0  0  0  0  0  0  0  0  0  0  0  0
   -1.8423   -9.9589  -16.6494 C   0  0  0  0  0  0  0  0  0  0  0  0
   -1.7598   -7.8449  -15.3453 C   0  0  0  0  0  0  0  0  0  0  0  0
   -3.3174   -9.6658  -16.8989 C   0  0  0  0  0  0  0  0  0  0  0  0
   -3.2398   -7.6706  -15.6665 C   0  0  0  0  0  0  0  0  0  0  0  0
    2.8653   -6.7908  -18.3875 C   0  0  0  0  0  0  0  0  0  0  0  0
   -0.8429   -8.6535  -19.7488 C   0  0  0  0  0  0  0  0  0  0  0  0
   -0.0488   -6.8270  -18.1819 C   0  0  0  0  0  0  0  0  0  0  0  0
   -0.1805   -7.2893  -19.6408 C   0  0  0  0  0  0  0  0  0  0  0  0
    2.9771   -8.5523  -16.7480 N   0  0  0  0  0  0  0  0  0  0  0  0
    1.0055   -9.5038  -15.7403 N   0  0  0  0  0  0  0  0  0  0  0  0
   -1.1279   -8.7140  -16.3474 N   0  0  0  0  0  0  0  0  0  0  0  0
    3.1464  -10.2666  -15.1549 N   0  0  0  0  0  0  0  0  0  0  0  0
   -3.8781   -8.9381  -15.8089 O   0  0  0  0  0  0  0  0  0  0  0  0
   -1.7463  -10.6418  -15.7955 H   0  0  0  0  0  0  0  0  0  0  0  0
   -1.4130  -10.4493  -17.5310 H   0  0  0  0  0  0  0  0  0  0  0  0
   -1.2723   -6.8633  -15.3188 H   0  0  0  0  0  0  0  0  0  0  0  0
   -1.6541   -8.3079  -14.3558 H   0  0  0  0  0  0  0  0  0  0  0  0
   -3.4627   -9.1067  -17.8311 H   0  0  0  0  0  0  0  0  0  0  0  0
   -3.8704  -10.6062  -16.9911 H   0  0  0  0  0  0  0  0  0  0  0  0
   -3.7352   -7.1383  -14.8481 H   0  0  0  0  0  0  0  0  0  0  0  0
   -3.3857   -7.0785  -16.5780 H   0  0  0  0  0  0  0  0  0  0  0  0
    3.0936   -5.8419  -17.8861 H   0  0  0  0  0  0  0  0  0  0  0  0
    2.2353   -6.5510  -19.2535 H   0  0  0  0  0  0  0  0  0  0  0  0
    3.8029   -7.2292  -18.7486 H   0  0  0  0  0  0  0  0  0  0  0  0
   -1.8354   -8.6299  -19.2874 H   0  0  0  0  0  0  0  0  0  0  0  0
   -0.9622   -8.9499  -20.7956 H   0  0  0  0  0  0  0  0  0  0  0  0
   -0.2491   -9.4194  -19.2399 H   0  0  0  0  0  0  0  0  0  0  0  0
    0.3679   -5.8059  -18.1583 H   0  0  0  0  0  0  0  0  0  0  0  0
   -1.0532   -6.7380  -17.7350 H   0  0  0  0  0  0  0  0  0  0  0  0
    0.8109   -7.3336  -20.1079 H   0  0  0  0  0  0  0  0  0  0  0  0
   -0.7669   -6.5594  -20.2115 H   0  0  0  0  0  0  0  0  0  0  0  0
    4.1354  -10.2580  -15.2961 H   0  0  0  0  0  0  0  0  0  0  0  0
    2.7102  -10.9459  -14.5664 H   0  0  0  0  0  0  0  0  0  0  0  0
  1  2  1  0  0  0  0
  1  3  2  0  0  0  0
  1 11  1  0  0  0  0
  2  9  1  0  0  0  0
  2 13  2  0  0  0  0
  3 14  1  0  0  0  0
  3 15  1  0  0  0  0
  4 13  1  0  0  0  0
  4 14  2  0  0  0  0
  4 16  1  0  0  0  0
  5  7  1  0  0  0  0
  5 15  1  0  0  0  0
  6  8  1  0  0  0  0
  6 15  1  0  0  0  0
  7 17  1  0  0  0  0
  8 17  1  0  0  0  0
 10 12  1  0  0  0  0
 11 12  1  0  0  0  0
  5 18  1  0  0  0  0
  5 19  1  0  0  0  0
  6 20  1  0  0  0  0
  6 21  1  0  0  0  0
  7 22  1  0  0  0  0
  7 23  1  0  0  0  0
  8 24  1  0  0  0  0
  8 25  1  0  0  0  0
  9 26  1  0  0  0  0
  9 27  1  0  0  0  0
  9 28  1  0  0  0  0
 10 29  1  0  0  0  0
 10 30  1  0  0  0  0
 10 31  1  0  0  0  0
 11 32  1  0  0  0  0
 11 33  1  0  0  0  0
 12 34  1  0  0  0  0
 12 35  1  0  0  0  0
 16 36  1  0  0  0  0
 16 37  1  0  0  0  0
M  END
> <HYBRID receptor title>
27_FRAG(A) > 95F(A-200)

> <HYBRID receptor filename>
data/docking/pairs/27_frag.oedu

> <HYBRID Chemgauss4 score>
-13.064251

> <HYBRID receptor title>
27_FRAG(A) > 95F(A-200)

> <HYBRID receptor filename>
data/docking/pairs/27_frag.oedu

> <Dock Type>
Hybrid

$$$$
MOL0002
  -OEChem-08212416293D

 33 34  0     0  0  0  0  0  0999 V2000
    0.5877   -7.7760  -17.7698 C   0  0  0  0  0  0  0  0  0  0  0  0
    1.9459   -7.6092  -17.5925 C   0  0  0  0  0  0  0  0  0  0  0  0
   -0.0032   -8.7434  -16.9833 C   0  0  0  0  0  0  0  0  0  0  0  0
    1.9900   -9.2394  -16.0084 C   0  0  0  0  0  0  0  0  0  0  0  0
   -3.4160   -9.9817  -17.6158 C   0  0  0  0  0  0  0  0  0  0  0  0
   -3.6851   -8.6050  -17.0306 C   0  0  0  0  0  0  0  0  0  0  0  0
   -1.9544   -9.9039  -18.0483 C   0  0  0  0  0  0  0  0  0  0  0  0
   -2.3748   -8.2535  -16.3314 C   0  0  0  0  0  0  0  0  0  0  0  0
    2.6939   -6.5896  -18.3869 C   0  0  0  0  0  0  0  0  0  0  0  0
    0.0273   -7.4250  -20.1880 C   0  0  0  0  0  0  0  0  0  0  0  0
   -0.1816   -6.9590  -18.7484 C   0  0  0  0  0  0  0  0  0  0  0  0
    2.6810   -8.3263  -16.7173 N   0  0  0  0  0  0  0  0  0  0  0  0
    0.6703   -9.4968  -16.0890 N   0  0  0  0  0  0  0  0  0  0  0  0
   -1.3595   -8.9535  -17.1134 N   0  0  0  0  0  0  0  0  0  0  0  0
    2.7279  -10.0094  -15.0832 N   0  0  0  0  0  0  0  0  0  0  0  0
   -3.5397  -10.7502  -16.8434 H   0  0  0  0  0  0  0  0  0  0  0  0
   -4.0850  -10.2184  -18.4480 H   0  0  0  0  0  0  0  0  0  0  0  0
   -3.8873   -7.8869  -17.8342 H   0  0  0  0  0  0  0  0  0  0  0  0
   -4.5369   -8.6036  -16.3447 H   0  0  0  0  0  0  0  0  0  0  0  0
   -1.4764  -10.8880  -17.9973 H   0  0  0  0  0  0  0  0  0  0  0  0
   -1.8704   -9.5194  -19.0710 H   0  0  0  0  0  0  0  0  0  0  0  0
   -2.2119   -7.1707  -16.3193 H   0  0  0  0  0  0  0  0  0  0  0  0
   -2.3717   -8.6264  -15.3009 H   0  0  0  0  0  0  0  0  0  0  0  0
    2.7123   -5.6207  -17.8724 H   0  0  0  0  0  0  0  0  0  0  0  0
    2.2220   -6.4238  -19.3636 H   0  0  0  0  0  0  0  0  0  0  0  0
    3.7271   -6.9180  -18.5497 H   0  0  0  0  0  0  0  0  0  0  0  0
   -0.2449   -8.4799  -20.3025 H   0  0  0  0  0  0  0  0  0  0  0  0
    1.0747   -7.3141  -20.4877 H   0  0  0  0  0  0  0  0  0  0  0  0
   -0.5869   -6.8392  -20.8788 H   0  0  0  0  0  0  0  0  0  0  0  0
    0.1018   -5.8964  -18.6715 H   0  0  0  0  0  0  0  0  0  0  0  0
   -1.2588   -6.9891  -18.5140 H   0  0  0  0  0  0  0  0  0  0  0  0
    3.7181   -9.8877  -15.0305 H   0  0  0  0  0  0  0  0  0  0  0  0
    2.2643  -10.7340  -14.5750 H   0  0  0  0  0  0  0  0  0  0  0  0
  1  2  1  0  0  0  0
  1  3  2  0  0  0  0
  1 11  1  0  0  0  0
  2  9  1  0  0  0  0
  2 12  2  0  0  0  0
  3 13  1  0  0  0  0
  3 14  1  0  0  0  0
  4 12  1  0  0  0  0
  4 13  2  0  0  0  0
  4 15  1  0  0  0  0
  5  6  1  0  0  0  0
  5  7  1  0  0  0  0
  6  8  1  0  0  0  0
  7 14  1  0  0  0  0
  8 14  1  0  0  0  0
 10 11  1  0  0  0  0
  5 16  1  0  0  0  0
  5 17  1  0  0  0  0
  6 18  1  0  0  0  0
  6 19  1  0  0  0  0
  7 20  1  0  0  0  0
  7 21  1  0  0  0  0
  8 22  1  0  0  0  0
  8 23  1  0  0  0  0
  9 24  1  0  0  0  0
  9 25  1  0  0  0  0
  9 26  1  0  0  0  0
 10 27  1  0  0  0  0
 10 28  1  0  0  0  0
 10 29  1  0  0  0  0
 11 30  1  0  0  0  0
 11 31  1  0  0  0  0
 15 32  1  0  0  0  0
 15 33  1  0  0  0  0
M  END
> <HYBRID receptor title>
27_FRAG(A) > 95F(A-200)

> <HYBRID receptor filename>
data/docking/pairs/27_frag.oedu

> <HYBRID Chemgauss4 score>
-13.031385

> <HYBRID receptor title>
27_FRAG(A) > 95F(A-200)

> <HYBRID receptor filename>
data/docking/pairs/27_frag.oedu

> <Dock Type>
Hybrid

$$$$
MOL0016
  -OEChem-08212416293D

 37 38  0     0  0  0  0  0  0999 V2000
    0.6735   -7.8781  -17.4319 C   0  0  0  0  0  0  0  0  0  0  0  0
    2.0494   -7.8154  -17.3487 C   0  0  0  0  0  0  0  0  0  0  0  0
    0.0730   -8.8600  -16.6710 C   0  0  0  0  0  0  0  0  0  0  0  0
    2.0906   -9.5584  -15.8896 C   0  0  0  0  0  0  0  0  0  0  0  0
   -1.9392  -10.2195  -17.1680 C   0  0  0  0  0  0  0  0  0  0  0  0
   -2.1066   -8.1857  -15.7496 C   0  0  0  0  0  0  0  0  0  0  0  0
   -3.3834   -9.9635  -17.5838 C   0  0  0  0  0  0  0  0  0  0  0  0
   -3.5417   -8.0441  -16.2436 C   0  0  0  0  0  0  0  0  0  0  0  0
    2.8094   -6.7914  -18.1259 C   0  0  0  0  0  0  0  0  0  0  0  0
    0.2450   -7.0803  -19.7839 C   0  0  0  0  0  0  0  0  0  0  0  0
    0.0542   -5.4707  -17.8525 C   0  0  0  0  0  0  0  0  0  0  0  0
   -0.1037   -6.9412  -18.2892 C   0  0  0  0  0  0  0  0  0  0  0  0
    2.7925   -8.6429  -16.5847 N   0  0  0  0  0  0  0  0  0  0  0  0
    0.7534   -9.7209  -15.8858 N   0  0  0  0  0  0  0  0  0  0  0  0
   -1.3203   -8.9709  -16.7109 N   0  0  0  0  0  0  0  0  0  0  0  0
    2.8362  -10.4425  -15.0796 N   0  0  0  0  0  0  0  0  0  0  0  0
   -4.1039   -9.3222  -16.5343 O   0  0  0  0  0  0  0  0  0  0  0  0
   -1.9205  -10.9485  -16.3477 H   0  0  0  0  0  0  0  0  0  0  0  0
   -1.3846  -10.6411  -18.0145 H   0  0  0  0  0  0  0  0  0  0  0  0
   -1.6675   -7.1911  -15.6082 H   0  0  0  0  0  0  0  0  0  0  0  0
   -2.1040   -8.7031  -14.7816 H   0  0  0  0  0  0  0  0  0  0  0  0
   -3.4362   -9.3550  -18.4947 H   0  0  0  0  0  0  0  0  0  0  0  0
   -3.8809  -10.9154  -17.7962 H   0  0  0  0  0  0  0  0  0  0  0  0
   -4.1559   -7.5792  -15.4656 H   0  0  0  0  0  0  0  0  0  0  0  0
   -3.5991   -7.4039  -17.1322 H   0  0  0  0  0  0  0  0  0  0  0  0
    2.9344   -5.8669  -17.5484 H   0  0  0  0  0  0  0  0  0  0  0  0
    2.2813   -6.5224  -19.0494 H   0  0  0  0  0  0  0  0  0  0  0  0
    3.8020   -7.1747  -18.3903 H   0  0  0  0  0  0  0  0  0  0  0  0
    1.3081   -6.8729  -19.9490 H   0  0  0  0  0  0  0  0  0  0  0  0
    0.0401   -8.0914  -20.1525 H   0  0  0  0  0  0  0  0  0  0  0  0
   -0.3307   -6.3798  -20.3992 H   0  0  0  0  0  0  0  0  0  0  0  0
    1.1005   -5.1484  -17.8969 H   0  0  0  0  0  0  0  0  0  0  0  0
   -0.5276   -4.8139  -18.5091 H   0  0  0  0  0  0  0  0  0  0  0  0
   -0.2983   -5.3151  -16.8268 H   0  0  0  0  0  0  0  0  0  0  0  0
   -1.1857   -7.1649  -18.2091 H   0  0  0  0  0  0  0  0  0  0  0  0
    3.8338  -10.3910  -15.0952 H   0  0  0  0  0  0  0  0  0  0  0  0
    2.3597  -11.1705  -14.5887 H   0  0  0  0  0  0  0  0  0  0  0  0
  1  2  2  0  0  0  0
  1  3  1  0  0  0  0
  1 12  1  0  0  0  0
  2  9  1  0  0  0  0
  2 13  1  0  0  0  0
  3 14  2  0  0  0  0
  3 15  1  0  0  0  0
  4 13  2  0  0  0  0
  4 14  1  0  0  0  0
  4 16  1  0  0  0  0
  5  7  1  0  0  0  0
  5 15  1  0  0  0  0
  6  8  1  0  0  0  0
  6 15  1  0  0  0  0
  7 17  1  0  0  0  0
  8 17  1  0  0  0  0
 10 12  1  0  0  0  0
 11 12  1  0  0  0  0
  5 18  1  0  0  0  0
  5 19  1  0  0  0  0
  6 20  1  0  0  0  0
  6 21  1  0  0  0  0
  7 22  1  0  0  0  0
  7 23  1  0  0  0  0
  8 24  1  0  0  0  0
  8 25  1  0  0  0  0
  9 26  1  0  0  0  0
  9 27  1  0  0  0  0
  9 28  1  0  0  0  0
 10 29  1  0  0  0  0
 10 30  1  0  0  0  0
 10 31  1  0  0  0  0
 11 32  1  0  0  0  0
 11 33  1  0  0  0  0
 11 34  1  0  0  0  0
 12 35  1  0  0  0  0
 16 36  1  0  0  0  0
 16 37  1  0  0  0  0
M  END
> <HYBRID receptor title>
27_FRAG(A) > 95F(A-200)

> <HYBRID receptor filename>
data/docking/pairs/27_frag.oedu

> <HYBRID Chemgauss4 score>
-13.021452

> <HYBRID receptor title>
27_FRAG(A) > 95F(A-200)

> <HYBRID receptor filename>
data/docking/pairs/27_frag.oedu

> <Dock Type>
Hybrid

$$$$
MOL0066
  -OEChem-08212416293D

 31 32  0     0  0  0  0  0  0999 V2000
    0.8352   -8.0505  -17.8313 C   0  0  0  0  0  0  0  0  0  0  0  0
    0.2569   -8.9806  -16.9920 C   0  0  0  0  0  0  0  0  0  0  0  0
    2.1884   -7.8465  -17.6554 C   0  0  0  0  0  0  0  0  0  0  0  0
    2.2515   -9.3773  -15.9755 C   0  0  0  0  0  0  0  0  0  0  0  0
   -1.5772  -10.5838  -17.4504 C   0  0  0  0  0  0  0  0  0  0  0  0
   -2.0459   -8.4109  -16.3390 C   0  0  0  0  0  0  0  0  0  0  0  0
   -2.9958  -10.5265  -18.0056 C   0  0  0  0  0  0  0  0  0  0  0  0
   -3.4388   -8.4756  -16.9552 C   0  0  0  0  0  0  0  0  0  0  0  0
    0.2732   -7.8648  -20.2674 C   0  0  0  0  0  0  0  0  0  0  0  0
    0.0486   -7.3149  -18.8603 C   0  0  0  0  0  0  0  0  0  0  0  0
    0.9379   -9.6650  -16.0493 N   0  0  0  0  0  0  0  0  0  0  0  0
    2.9305   -8.4947  -16.7335 N   0  0  0  0  0  0  0  0  0  0  0  0
   -1.1124   -9.2320  -17.1220 N   0  0  0  0  0  0  0  0  0  0  0  0
    2.9963  -10.0747  -14.9994 N   0  0  0  0  0  0  0  0  0  0  0  0
   -3.8594   -9.8294  -17.1109 O   0  0  0  0  0  0  0  0  0  0  0  0
    3.0857   -6.7288  -18.6050 Cl  0  0  0  0  0  0  0  0  0  0  0  0
   -1.5674  -11.1959  -16.5394 H   0  0  0  0  0  0  0  0  0  0  0  0
   -0.9153  -11.0541  -18.1870 H   0  0  0  0  0  0  0  0  0  0  0  0
   -1.7096   -7.3681  -16.3015 H   0  0  0  0  0  0  0  0  0  0  0  0
   -2.0837   -8.7968  -15.3122 H   0  0  0  0  0  0  0  0  0  0  0  0
   -3.0209  -10.0482  -18.9922 H   0  0  0  0  0  0  0  0  0  0  0  0
   -3.3877  -11.5419  -18.1235 H   0  0  0  0  0  0  0  0  0  0  0  0
   -4.1574   -7.9772  -16.2967 H   0  0  0  0  0  0  0  0  0  0  0  0
   -3.4732   -7.9637  -17.9245 H   0  0  0  0  0  0  0  0  0  0  0  0
    0.0269   -8.9310  -20.3163 H   0  0  0  0  0  0  0  0  0  0  0  0
    1.3186   -7.7473  -20.5719 H   0  0  0  0  0  0  0  0  0  0  0  0
   -0.3529   -7.3382  -20.9943 H   0  0  0  0  0  0  0  0  0  0  0  0
    0.3059   -6.2432  -18.8491 H   0  0  0  0  0  0  0  0  0  0  0  0
   -1.0280   -7.3572  -18.6255 H   0  0  0  0  0  0  0  0  0  0  0  0
    2.5214  -10.6990  -14.3807 H   0  0  0  0  0  0  0  0  0  0  0  0
    3.9624   -9.8531  -14.8755 H   0  0  0  0  0  0  0  0  0  0  0  0
  1  2  2  0  0  0  0
  1  3  1  0  0  0  0
  1 10  1  0  0  0  0
  2 11  1  0  0  0  0
  2 13  1  0  0  0  0
  3 12  2  0  0  0  0
  3 16  1  0  0  0  0
  4 11  2  0  0  0  0
  4 12  1  0  0  0  0
  4 14  1  0  0  0  0
  5  7  1  0  0  0  0
  5 13  1  0  0  0  0
  6  8  1  0  0  0  0
  6 13  1  0  0  0  0
  7 15  1  0  0  0  0
  8 15  1  0  0  0  0
  9 10  1  0  0  0  0
  5 17  1  0  0  0  0
  5 18  1  0  0  0  0
  6 19  1  0  0  0  0
  6 20  1  0  0  0  0
  7 21  1  0  0  0  0
  7 22  1  0  0  0  0
  8 23  1  0  0  0  0
  8 24  1  0  0  0  0
  9 25  1  0  0  0  0
  9 26  1  0  0  0  0
  9 27  1  0  0  0  0
 10 28  1  0  0  0  0
 10 29  1  0  0  0  0
 14 30  1  0  0  0  0
 14 31  1  0  0  0  0
M  END
> <HYBRID receptor title>
27_FRAG(A) > 95F(A-200)

> <HYBRID receptor filename>
data/docking/pairs/27_frag.oedu

> <HYBRID Chemgauss4 score>
-12.971583

> <HYBRID receptor title>
27_FRAG(A) > 95F(A-200)

> <HYBRID receptor filename>
data/docking/pairs/27_frag.oedu

> <Dock Type>
Hybrid

$$$$
MOL0035
  -OEChem-08212416293D

 35 36  0     0  0  0  0  0  0999 V2000
    0.9692   -7.8502  -17.5909 C   0  0  0  0  0  0  0  0  0  0  0  0
    2.3472   -7.8875  -17.5296 C   0  0  0  0  0  0  0  0  0  0  0  0
    0.3100   -8.7340  -16.7614 C   0  0  0  0  0  0  0  0  0  0  0  0
    2.2829   -9.5338  -15.9630 C   0  0  0  0  0  0  0  0  0  0  0  0
   -1.8072   -9.9646  -17.1447 C   0  0  0  0  0  0  0  0  0  0  0  0
   -1.7960   -7.8392  -15.8568 C   0  0  0  0  0  0  0  0  0  0  0  0
   -3.2351   -9.6259  -17.5574 C   0  0  0  0  0  0  0  0  0  0  0  0
   -3.2249   -7.6199  -16.3403 C   0  0  0  0  0  0  0  0  0  0  0  0
    3.1682   -6.9750  -18.3802 C   0  0  0  0  0  0  0  0  0  0  0  0
    0.2496   -6.9123  -18.4961 C   0  0  0  0  0  0  0  0  0  0  0  0
   -0.2891   -7.5918  -19.7599 C   0  0  0  0  0  0  0  0  0  0  0  0
    3.0392   -8.7197  -16.7241 N   0  0  0  0  0  0  0  0  0  0  0  0
    0.9376   -9.5934  -15.9316 N   0  0  0  0  0  0  0  0  0  0  0  0
   -1.0881   -8.7406  -16.7762 N   0  0  0  0  0  0  0  0  0  0  0  0
    2.9740  -10.4197  -15.1080 N   0  0  0  0  0  0  0  0  0  0  0  0
   -3.8867   -8.8671  -16.5417 O   0  0  0  0  0  0  0  0  0  0  0  0
   -1.2090   -8.6129  -19.3951 O   0  0  0  0  0  0  0  0  0  0  0  0
   -1.8289  -10.6401  -16.2799 H   0  0  0  0  0  0  0  0  0  0  0  0
   -1.3009  -10.4794  -17.9697 H   0  0  0  0  0  0  0  0  0  0  0  0
   -1.2810   -6.8741  -15.7848 H   0  0  0  0  0  0  0  0  0  0  0  0
   -1.8153   -8.2937  -14.8579 H   0  0  0  0  0  0  0  0  0  0  0  0
   -3.2581   -9.0733  -18.5045 H   0  0  0  0  0  0  0  0  0  0  0  0
   -3.8065  -10.5485  -17.7023 H   0  0  0  0  0  0  0  0  0  0  0  0
   -3.7886   -7.0617  -15.5857 H   0  0  0  0  0  0  0  0  0  0  0  0
   -3.2497   -7.0340  -17.2671 H   0  0  0  0  0  0  0  0  0  0  0  0
    3.3726   -6.0284  -17.8645 H   0  0  0  0  0  0  0  0  0  0  0  0
    2.6456   -6.7248  -19.3121 H   0  0  0  0  0  0  0  0  0  0  0  0
    4.1243   -7.4485  -18.6324 H   0  0  0  0  0  0  0  0  0  0  0  0
   -0.5864   -6.4290  -17.9607 H   0  0  0  0  0  0  0  0  0  0  0  0
    0.9255   -6.0925  -18.7953 H   0  0  0  0  0  0  0  0  0  0  0  0
    0.5179   -8.0374  -20.3509 H   0  0  0  0  0  0  0  0  0  0  0  0
   -0.8231   -6.8680  -20.3846 H   0  0  0  0  0  0  0  0  0  0  0  0
    3.9723  -10.4455  -15.1396 H   0  0  0  0  0  0  0  0  0  0  0  0
    2.4529  -11.0771  -14.5656 H   0  0  0  0  0  0  0  0  0  0  0  0
   -1.5231   -9.0140  -20.2212 H   0  0  0  0  0  0  0  0  0  0  0  0
  1  2  2  0  0  0  0
  1  3  1  0  0  0  0
  1 10  1  0  0  0  0
  2  9  1  0  0  0  0
  2 12  1  0  0  0  0
  3 13  2  0  0  0  0
  3 14  1  0  0  0  0
  4 12  2  0  0  0  0
  4 13  1  0  0  0  0
  4 15  1  0  0  0  0
  5  7  1  0  0  0  0
  5 14  1  0  0  0  0
  6  8  1  0  0  0  0
  6 14  1  0  0  0  0
  7 16  1  0  0  0  0
  8 16  1  0  0  0  0
 10 11  1  0  0  0  0
 11 17  1  0  0  0  0
  5 18  1  0  0  0  0
  5 19  1  0  0  0  0
  6 20  1  0  0  0  0
  6 21  1  0  0  0  0
  7 22  1  0  0  0  0
  7 23  1  0  0  0  0
  8 24  1  0  0  0  0
  8 25  1  0  0  0  0
  9 26  1  0  0  0  0
  9 27  1  0  0  0  0
  9 28  1  0  0  0  0
 10 29  1  0  0  0  0
 10 30  1  0  0  0  0
 11 31  1  0  0  0  0
 11 32  1  0  0  0  0
 15 33  1  0  0  0  0
 15 34  1  0  0  0  0
 17 35  1  0  0  0  0
M  END
> <HYBRID receptor title>
27_FRAG(A) > 95F(A-200)

> <HYBRID receptor filename>
data/docking/pairs/27_frag.oedu

> <HYBRID Chemgauss4 score>
-12.934540

> <HYBRID receptor title>
27_FRAG(A) > 95F(A-200)

> <HYBRID receptor filename>
data/docking/pairs/27_frag.oedu

> <Dock Type>
Hybrid

$$$$
MOL0039
  -OEChem-08212416293D

 28 29  0     0  0  0  0  0  0999 V2000
    1.0832   -7.8065  -17.9722 C   0  0  0  0  0  0  0  0  0  0  0  0
    2.4219   -7.6136  -17.6987 C   0  0  0  0  0  0  0  0  0  0  0  0
    0.4527   -8.7746  -17.2179 C   0  0  0  0  0  0  0  0  0  0  0  0
    2.3775   -9.2235  -16.0941 C   0  0  0  0  0  0  0  0  0  0  0  0
   -1.8777   -7.9257  -17.2909 C   0  0  0  0  0  0  0  0  0  0  0  0
   -1.4799  -10.3437  -17.4739 C   0  0  0  0  0  0  0  0  0  0  0  0
   -2.6830   -8.2090  -16.0227 C   0  0  0  0  0  0  0  0  0  0  0  0
   -2.2854  -10.5388  -16.1942 C   0  0  0  0  0  0  0  0  0  0  0  0
    3.1909   -6.5882  -18.4620 C   0  0  0  0  0  0  0  0  0  0  0  0
    3.1031   -8.3070  -16.7629 N   0  0  0  0  0  0  0  0  0  0  0  0
    1.0717   -9.5052  -16.2671 N   0  0  0  0  0  0  0  0  0  0  0  0
   -0.8964   -9.0016  -17.4611 N   0  0  0  0  0  0  0  0  0  0  0  0
    3.0582   -9.9692  -15.1070 N   0  0  0  0  0  0  0  0  0  0  0  0
   -3.2737   -9.5110  -16.0724 O   0  0  0  0  0  0  0  0  0  0  0  0
    0.4419   -7.0989  -18.9095 F   0  0  0  0  0  0  0  0  0  0  0  0
   -2.5485   -7.9121  -18.1501 H   0  0  0  0  0  0  0  0  0  0  0  0
   -1.3862   -6.9586  -17.2014 H   0  0  0  0  0  0  0  0  0  0  0  0
   -0.7037  -11.1087  -17.5377 H   0  0  0  0  0  0  0  0  0  0  0  0
   -2.1427  -10.4388  -18.3379 H   0  0  0  0  0  0  0  0  0  0  0  0
   -2.0592   -8.1214  -15.1250 H   0  0  0  0  0  0  0  0  0  0  0  0
   -3.4944   -7.4800  -15.9306 H   0  0  0  0  0  0  0  0  0  0  0  0
   -2.8069  -11.4976  -16.2273 H   0  0  0  0  0  0  0  0  0  0  0  0
   -1.6425  -10.5384  -15.3095 H   0  0  0  0  0  0  0  0  0  0  0  0
    3.1518   -5.6097  -17.9659 H   0  0  0  0  0  0  0  0  0  0  0  0
    2.7785   -6.4505  -19.4702 H   0  0  0  0  0  0  0  0  0  0  0  0
    4.2415   -6.8897  -18.5541 H   0  0  0  0  0  0  0  0  0  0  0  0
    4.0397   -9.8293  -14.9836 H   0  0  0  0  0  0  0  0  0  0  0  0
    2.5707  -10.6955  -14.6245 H   0  0  0  0  0  0  0  0  0  0  0  0
  1  2  2  0  0  0  0
  1  3  1  0  0  0  0
  1 15  1  0  0  0  0
  2  9  1  0  0  0  0
  2 10  1  0  0  0  0
  3 11  2  0  0  0  0
  3 12  1  0  0  0  0
  4 10  2  0  0  0  0
  4 11  1  0  0  0  0
  4 13  1  0  0  0  0
  5  7  1  0  0  0  0
  5 12  1  0  0  0  0
  6  8  1  0  0  0  0
  6 12  1  0  0  0  0
  7 14  1  0  0  0  0
  8 14  1  0  0  0  0
  5 16  1  0  0  0  0
  5 17  1  0  0  0  0
  6 18  1  0  0  0  0
  6 19  1  0  0  0  0
  7 20  1  0  0  0  0
  7 21  1  0  0  0  0
  8 22  1  0  0  0  0
  8 23  1  0  0  0  0
  9 24  1  0  0  0  0
  9 25  1  0  0  0  0
  9 26  1  0  0  0  0
 13 27  1  0  0  0  0
 13 28  1  0  0  0  0
M  END
> <HYBRID receptor title>
27_FRAG(A) > 95F(A-200)

> <HYBRID receptor filename>
data/docking/pairs/27_frag.oedu

> <HYBRID Chemgauss4 score>
-12.902555

> <HYBRID receptor title>
27_FRAG(A) > 95F(A-200)

> <HYBRID receptor filename>
data/docking/pairs/27_frag.oedu

> <Dock Type>
Hybrid

$$$$
MOL0063
  -OEChem-08212416293D

 28 29  0     0  0  0  0  0  0999 V2000
    0.5382   -8.1100  -17.8758 C   0  0  0  0  0  0  0  0  0  0  0  0
    1.8882   -7.8780  -17.7096 C   0  0  0  0  0  0  0  0  0  0  0  0
   -0.0197   -9.0335  -17.0158 C   0  0  0  0  0  0  0  0  0  0  0  0
    1.9859   -9.3739  -16.0004 C   0  0  0  0  0  0  0  0  0  0  0  0
   -1.8091  -10.7060  -17.3966 C   0  0  0  0  0  0  0  0  0  0  0  0
   -2.3262   -8.5230  -16.3275 C   0  0  0  0  0  0  0  0  0  0  0  0
   -3.2400  -10.7084  -17.9225 C   0  0  0  0  0  0  0  0  0  0  0  0
   -3.7285   -8.6479  -16.9119 C   0  0  0  0  0  0  0  0  0  0  0  0
    2.6365   -6.9064  -18.5634 C   0  0  0  0  0  0  0  0  0  0  0  0
    2.6455   -8.4946  -16.7785 N   0  0  0  0  0  0  0  0  0  0  0  0
    0.6772   -9.6870  -16.0629 N   0  0  0  0  0  0  0  0  0  0  0  0
   -1.3824   -9.3323  -17.1105 N   0  0  0  0  0  0  0  0  0  0  0  0
    2.7466  -10.0371  -15.0131 N   0  0  0  0  0  0  0  0  0  0  0  0
   -4.1074  -10.0181  -17.0263 O   0  0  0  0  0  0  0  0  0  0  0  0
   -0.5726   -7.1152  -19.3429 I   0  0  0  0  0  0  0  0  0  0  0  0
   -1.7603  -11.2950  -16.4717 H   0  0  0  0  0  0  0  0  0  0  0  0
   -1.1474  -11.1726  -18.1358 H   0  0  0  0  0  0  0  0  0  0  0  0
   -2.0237   -7.4692  -16.3220 H   0  0  0  0  0  0  0  0  0  0  0  0
   -2.3300   -8.8847  -15.2912 H   0  0  0  0  0  0  0  0  0  0  0  0
   -3.3012  -10.2556  -18.9194 H   0  0  0  0  0  0  0  0  0  0  0  0
   -3.6005  -11.7386  -18.0077 H   0  0  0  0  0  0  0  0  0  0  0  0
   -4.4495   -8.1571  -16.2502 H   0  0  0  0  0  0  0  0  0  0  0  0
   -3.7997   -8.1613  -17.8922 H   0  0  0  0  0  0  0  0  0  0  0  0
    2.6244   -5.9015  -18.1238 H   0  0  0  0  0  0  0  0  0  0  0  0
    2.1844   -6.8256  -19.5597 H   0  0  0  0  0  0  0  0  0  0  0  0
    3.6787   -7.2260  -18.6770 H   0  0  0  0  0  0  0  0  0  0  0  0
    3.7310   -9.8727  -14.9666 H   0  0  0  0  0  0  0  0  0  0  0  0
    2.3081  -10.7359  -14.4496 H   0  0  0  0  0  0  0  0  0  0  0  0
  1  2  2  0  0  0  0
  1  3  1  0  0  0  0
  1 15  1  0  0  0  0
  2  9  1  0  0  0  0
  2 10  1  0  0  0  0
  3 11  2  0  0  0  0
  3 12  1  0  0  0  0
  4 10  2  0  0  0  0
  4 11  1  0  0  0  0
  4 13  1  0  0  0  0
  5  7  1  0  0  0  0
  5 12  1  0  0  0  0
  6  8  1  0  0  0  0
  6 12  1  0  0  0  0
  7 14  1  0  0  0  0
  8 14  1  0  0  0  0
  5 16  1  0  0  0  0
  5 17  1  0  0  0  0
  6 18  1  0  0  0  0
  6 19  1  0  0  0  0
  7 20  1  0  0  0  0
  7 21  1  0  0  0  0
  8 22  1  0  0  0  0
  8 23  1  0  0  0  0
  9 24  1  0  0  0  0
  9 25  1  0  0  0  0
  9 26  1  0  0  0  0
 13 27  1  0  0  0  0
 13 28  1  0  0  0  0
M  END
> <HYBRID receptor title>
27_FRAG(A) > 95F(A-200)

> <HYBRID receptor filename>
data/docking/pairs/27_frag.oedu

> <HYBRID Chemgauss4 score>
-12.854109

> <HYBRID receptor title>
27_FRAG(A) > 95F(A-200)

> <HYBRID receptor filename>
data/docking/pairs/27_frag.oedu

> <Dock Type>
Hybrid

$$$$
MOL0037
  -OEChem-08212416293D

 28 29  0     0  0  0  0  0  0999 V2000
    1.0442   -7.9455  -18.0802 C   0  0  0  0  0  0  0  0  0  0  0  0
    2.4039   -7.8519  -17.8650 C   0  0  0  0  0  0  0  0  0  0  0  0
    0.3528   -8.7466  -17.1948 C   0  0  0  0  0  0  0  0  0  0  0  0
    2.2657   -9.2390  -16.0690 C   0  0  0  0  0  0  0  0  0  0  0  0
   -1.5707   -9.4474  -18.5925 C   0  0  0  0  0  0  0  0  0  0  0  0
   -1.8418   -9.1143  -16.1447 C   0  0  0  0  0  0  0  0  0  0  0  0
   -3.0409   -9.0706  -18.7361 C   0  0  0  0  0  0  0  0  0  0  0  0
   -3.2971   -8.7575  -16.4248 C   0  0  0  0  0  0  0  0  0  0  0  0
    3.2722   -7.0186  -18.7505 C   0  0  0  0  0  0  0  0  0  0  0  0
    3.0499   -8.4876  -16.8653 N   0  0  0  0  0  0  0  0  0  0  0  0
    0.9338   -9.4110  -16.1741 N   0  0  0  0  0  0  0  0  0  0  0  0
   -1.0296   -8.8902  -17.3484 N   0  0  0  0  0  0  0  0  0  0  0  0
    2.9078   -9.9182  -15.0107 N   0  0  0  0  0  0  0  0  0  0  0  0
   -3.7747   -9.4524  -17.5751 O   0  0  0  0  0  0  0  0  0  0  0  0
    0.2733   -7.1096  -19.3736 Cl  0  0  0  0  0  0  0  0  0  0  0  0
   -1.4762  -10.5406  -18.5649 H   0  0  0  0  0  0  0  0  0  0  0  0
   -1.0121   -9.0764  -19.4598 H   0  0  0  0  0  0  0  0  0  0  0  0
   -1.4710   -8.5115  -15.3074 H   0  0  0  0  0  0  0  0  0  0  0  0
   -1.7742  -10.1728  -15.8623 H   0  0  0  0  0  0  0  0  0  0  0  0
   -3.1634   -7.9955  -18.9146 H   0  0  0  0  0  0  0  0  0  0  0  0
   -3.4751   -9.5967  -19.5925 H   0  0  0  0  0  0  0  0  0  0  0  0
   -3.9201   -9.0531  -15.5745 H   0  0  0  0  0  0  0  0  0  0  0  0
   -3.4258   -7.6774  -16.5651 H   0  0  0  0  0  0  0  0  0  0  0  0
    3.3504   -5.9909  -18.3753 H   0  0  0  0  0  0  0  0  0  0  0  0
    2.8600   -6.9584  -19.7654 H   0  0  0  0  0  0  0  0  0  0  0  0
    4.2791   -7.4479  -18.8069 H   0  0  0  0  0  0  0  0  0  0  0  0
    3.9017   -9.8599  -14.9283 H   0  0  0  0  0  0  0  0  0  0  0  0
    2.3717  -10.5282  -14.4287 H   0  0  0  0  0  0  0  0  0  0  0  0
  1  2  2  0  0  0  0
  1  3  1  0  0  0  0
  1 15  1  0  0  0  0
  2  9  1  0  0  0  0
  2 10  1  0  0  0  0
  3 11  2  0  0  0  0
  3 12  1  0  0  0  0
  4 10  2  0  0  0  0
  4 11  1  0  0  0  0
  4 13  1  0  0  0  0
  5  7  1  0  0  0  0
  5 12  1  0  0  0  0
  6  8  1  0  0  0  0
  6 12  1  0  0  0  0
  7 14  1  0  0  0  0
  8 14  1  0  0  0  0
  5 16  1  0  0  0  0
  5 17  1  0  0  0  0
  6 18  1  0  0  0  0
  6 19  1  0  0  0  0
  7 20  1  0  0  0  0
  7 21  1  0  0  0  0
  8 22  1  0  0  0  0
  8 23  1  0  0  0  0
  9 24  1  0  0  0  0
  9 25  1  0  0  0  0
  9 26  1  0  0  0  0
 13 27  1  0  0  0  0
 13 28  1  0  0  0  0
M  END
> <HYBRID receptor title>
27_FRAG(A) > 95F(A-200)

> <HYBRID receptor filename>
data/docking/pairs/27_frag.oedu

> <HYBRID Chemgauss4 score>
-12.830452

> <HYBRID receptor title>
27_FRAG(A) > 95F(A-200)

> <HYBRID receptor filename>
data/docking/pairs/27_frag.oedu

> <Dock Type>
Hybrid

$$$$
MOL0013
  -OEChem-08212416293D

 36 37  0     0  0  0  0  0  0999 V2000
    0.3174   -8.1034  -16.7890 C   0  0  0  0  0  0  0  0  0  0  0  0
    1.6745   -8.0409  -17.0304 C   0  0  0  0  0  0  0  0  0  0  0  0
   -0.0564   -8.7923  -15.6534 C   0  0  0  0  0  0  0  0  0  0  0  0
    2.1146   -9.2483  -15.1550 C   0  0  0  0  0  0  0  0  0  0  0  0
   -3.5468   -9.7850  -15.0116 C   0  0  0  0  0  0  0  0  0  0  0  0
   -3.5922   -8.2890  -14.7466 C   0  0  0  0  0  0  0  0  0  0  0  0
   -2.2675   -9.9626  -15.8247 C   0  0  0  0  0  0  0  0  0  0  0  0
   -2.1261   -7.9203  -14.5374 C   0  0  0  0  0  0  0  0  0  0  0  0
    2.1982   -7.3197  -18.2286 C   0  0  0  0  0  0  0  0  0  0  0  0
   -1.8852   -7.6102  -19.9202 C   0  0  0  0  0  0  0  0  0  0  0  0
   -0.6715   -7.4644  -17.7004 C   0  0  0  0  0  0  0  0  0  0  0  0
   -0.9004   -8.2849  -18.9787 C   0  0  0  0  0  0  0  0  0  0  0  0
    2.6045   -8.6040  -16.2314 N   0  0  0  0  0  0  0  0  0  0  0  0
    0.8188   -9.3796  -14.8109 N   0  0  0  0  0  0  0  0  0  0  0  0
   -1.3996   -8.8857  -15.3575 N   0  0  0  0  0  0  0  0  0  0  0  0
    3.0597   -9.8511  -14.2967 N   0  0  0  0  0  0  0  0  0  0  0  0
   -3.4705  -10.3332  -14.0651 H   0  0  0  0  0  0  0  0  0  0  0  0
   -4.4328  -10.1403  -15.5455 H   0  0  0  0  0  0  0  0  0  0  0  0
   -3.9913   -7.7631  -15.6221 H   0  0  0  0  0  0  0  0  0  0  0  0
   -4.2126   -8.0382  -13.8815 H   0  0  0  0  0  0  0  0  0  0  0  0
   -1.8276  -10.9510  -15.6547 H   0  0  0  0  0  0  0  0  0  0  0  0
   -2.4659   -9.8402  -16.8955 H   0  0  0  0  0  0  0  0  0  0  0  0
   -1.9308   -6.8878  -14.8457 H   0  0  0  0  0  0  0  0  0  0  0  0
   -1.8415   -8.0386  -13.4857 H   0  0  0  0  0  0  0  0  0  0  0  0
    2.3946   -6.2642  -18.0024 H   0  0  0  0  0  0  0  0  0  0  0  0
    1.4731   -7.3404  -19.0520 H   0  0  0  0  0  0  0  0  0  0  0  0
    3.1307   -7.7822  -18.5729 H   0  0  0  0  0  0  0  0  0  0  0  0
   -1.5260   -6.6125  -20.1921 H   0  0  0  0  0  0  0  0  0  0  0  0
   -2.0074   -8.1895  -20.8408 H   0  0  0  0  0  0  0  0  0  0  0  0
   -2.8672   -7.5017  -19.4490 H   0  0  0  0  0  0  0  0  0  0  0  0
   -0.3386   -6.4486  -17.9728 H   0  0  0  0  0  0  0  0  0  0  0  0
   -1.6339   -7.3218  -17.1808 H   0  0  0  0  0  0  0  0  0  0  0  0
   -1.2777   -9.2814  -18.7185 H   0  0  0  0  0  0  0  0  0  0  0  0
    0.0518   -8.4335  -19.5015 H   0  0  0  0  0  0  0  0  0  0  0  0
    4.0273   -9.8235  -14.5439 H   0  0  0  0  0  0  0  0  0  0  0  0
    2.7366  -10.3840  -13.5158 H   0  0  0  0  0  0  0  0  0  0  0  0
  1  2  1  0  0  0  0
  1  3  2  0  0  0  0
  1 11  1  0  0  0  0
  2  9  1  0  0  0  0
  2 13  2  0  0  0  0
  3 14  1  0  0  0  0
  3 15  1  0  0  0  0
  4 13  1  0  0  0  0
  4 14  2  0  0  0  0
  4 16  1  0  0  0  0
  5  6  1  0  0  0  0
  5  7  1  0  0  0  0
  6  8  1  0  0  0  0
  7 15  1  0  0  0  0
  8 15  1  0  0  0  0
 10 12  1  0  0  0  0
 11 12  1  0  0  0  0
  5 17  1  0  0  0  0
  5 18  1  0  0  0  0
  6 19  1  0  0  0  0
  6 20  1  0  0  0  0
  7 21  1  0  0  0  0
  7 22  1  0  0  0  0
  8 23  1  0  0  0  0
  8 24  1  0  0  0  0
  9 25  1  0  0  0  0
  9 26  1  0  0  0  0
  9 27  1  0  0  0  0
 10 28  1  0  0  0  0
 10 29  1  0  0  0  0
 10 30  1  0  0  0  0
 11 31  1  0  0  0  0
 11 32  1  0  0  0  0
 12 33  1  0  0  0  0
 12 34  1  0  0  0  0
 16 35  1  0  0  0  0
 16 36  1  0  0  0  0
M  END
> <HYBRID receptor title>
27_FRAG(A) > 95F(A-200)

> <HYBRID receptor filename>
data/docking/pairs/27_frag.oedu

> <HYBRID Chemgauss4 score>
-12.778493

> <HYBRID receptor title>
27_FRAG(A) > 95F(A-200)

> <HYBRID receptor filename>
data/docking/pairs/27_frag.oedu

> <Dock Type>
Hybrid

$$$$
MOL0007
  -OEChem-08212416293D

 29 30  0     0  0  0  0  0  0999 V2000
    0.3086   -7.1542  -19.0394 C   0  0  0  0  0  0  0  0  0  0  0  0
    1.0044   -7.8517  -18.0026 C   0  0  0  0  0  0  0  0  0  0  0  0
    2.3742   -7.7634  -17.8616 C   0  0  0  0  0  0  0  0  0  0  0  0
    0.3593   -8.6521  -17.0823 C   0  0  0  0  0  0  0  0  0  0  0  0
    2.3288   -9.1534  -16.0631 C   0  0  0  0  0  0  0  0  0  0  0  0
   -1.6214  -10.1144  -17.3702 C   0  0  0  0  0  0  0  0  0  0  0  0
   -1.8657   -7.8249  -16.4349 C   0  0  0  0  0  0  0  0  0  0  0  0
   -3.0436   -9.9741  -17.9008 C   0  0  0  0  0  0  0  0  0  0  0  0
   -3.2748   -7.8131  -17.0166 C   0  0  0  0  0  0  0  0  0  0  0  0
    3.1916   -6.9287  -18.7940 C   0  0  0  0  0  0  0  0  0  0  0  0
   -0.2560   -6.5880  -19.8806 N   0  0  0  0  0  0  0  0  0  0  0  0
    3.0712   -8.4032  -16.8996 N   0  0  0  0  0  0  0  0  0  0  0  0
    0.9926   -9.3204  -16.0958 N   0  0  0  0  0  0  0  0  0  0  0  0
   -1.0299   -8.7881  -17.1646 N   0  0  0  0  0  0  0  0  0  0  0  0
    3.0251   -9.8377  -15.0432 N   0  0  0  0  0  0  0  0  0  0  0  0
   -3.8178   -9.1313  -17.0508 O   0  0  0  0  0  0  0  0  0  0  0  0
   -1.6416  -10.6488  -16.4117 H   0  0  0  0  0  0  0  0  0  0  0  0
   -1.0237  -10.7011  -18.0777 H   0  0  0  0  0  0  0  0  0  0  0  0
   -1.4374   -6.8173  -16.4909 H   0  0  0  0  0  0  0  0  0  0  0  0
   -1.9102   -8.1211  -15.3790 H   0  0  0  0  0  0  0  0  0  0  0  0
   -3.0525   -9.5774  -18.9232 H   0  0  0  0  0  0  0  0  0  0  0  0
   -3.5270  -10.9561  -17.9261 H   0  0  0  0  0  0  0  0  0  0  0  0
   -3.9286   -7.1997  -16.3882 H   0  0  0  0  0  0  0  0  0  0  0  0
   -3.2894   -7.3806  -18.0243 H   0  0  0  0  0  0  0  0  0  0  0  0
    3.2922   -5.9023  -18.4212 H   0  0  0  0  0  0  0  0  0  0  0  0
    2.7215   -6.8659  -19.7830 H   0  0  0  0  0  0  0  0  0  0  0  0
    4.1927   -7.3593  -18.9087 H   0  0  0  0  0  0  0  0  0  0  0  0
    4.0223   -9.7836  -15.0153 H   0  0  0  0  0  0  0  0  0  0  0  0
    2.5194  -10.4469  -14.4339 H   0  0  0  0  0  0  0  0  0  0  0  0
  1  2  1  0  0  0  0
  1 11  3  0  0  0  0
  2  3  2  0  0  0  0
  2  4  1  0  0  0  0
  3 10  1  0  0  0  0
  3 12  1  0  0  0  0
  4 13  2  0  0  0  0
  4 14  1  0  0  0  0
  5 12  2  0  0  0  0
  5 13  1  0  0  0  0
  5 15  1  0  0  0  0
  6  8  1  0  0  0  0
  6 14  1  0  0  0  0
  7  9  1  0  0  0  0
  7 14  1  0  0  0  0
  8 16  1  0  0  0  0
  9 16  1  0  0  0  0
  6 17  1  0  0  0  0
  6 18  1  0  0  0  0
  7 19  1  0  0  0  0
  7 20  1  0  0  0  0
  8 21  1  0  0  0  0
  8 22  1  0  0  0  0
  9 23  1  0  0  0  0
  9 24  1  0  0  0  0
 10 25  1  0  0  0  0
 10 26  1  0  0  0  0
 10 27  1  0  0  0  0
 15 28  1  0  0  0  0
 15 29  1  0  0  0  0
M  END
> <HYBRID receptor title>
27_FRAG(A) > 95F(A-200)

> <HYBRID receptor filename>
data/docking/pairs/27_frag.oedu

> <HYBRID Chemgauss4 score>
-12.759701

> <HYBRID receptor title>
27_FRAG(A) > 95F(A-200)

> <HYBRID receptor filename>
data/docking/pairs/27_frag.oedu

> <Dock Type>
Hybrid

$$$$
MOL0041
  -OEChem-08212416293D

 37 38  0     0  0  0  0  0  0999 V2000
    0.7266   -7.7922  -17.5530 C   0  0  0  0  0  0  0  0  0  0  0  0
    2.1012   -7.6769  -17.5182 C   0  0  0  0  0  0  0  0  0  0  0  0
    0.1934   -8.8151  -16.7960 C   0  0  0  0  0  0  0  0  0  0  0  0
    2.2644   -9.4512  -16.1061 C   0  0  0  0  0  0  0  0  0  0  0  0
   -1.7815  -10.2413  -17.2541 C   0  0  0  0  0  0  0  0  0  0  0  0
   -1.9749   -8.2503  -15.7795 C   0  0  0  0  0  0  0  0  0  0  0  0
   -3.2490  -10.0331  -17.6108 C   0  0  0  0  0  0  0  0  0  0  0  0
   -3.4319   -8.1541  -16.2174 C   0  0  0  0  0  0  0  0  0  0  0  0
   -0.0881   -7.1985  -19.8483 C   0  0  0  0  0  0  0  0  0  0  0  0
    4.2517   -6.4418  -17.8850 C   0  0  0  0  0  0  0  0  0  0  0  0
   -0.1178   -6.8667  -18.3576 C   0  0  0  0  0  0  0  0  0  0  0  0
    2.7914   -6.6052  -18.2961 C   0  0  0  0  0  0  0  0  0  0  0  0
    2.9037   -8.4922  -16.8028 N   0  0  0  0  0  0  0  0  0  0  0  0
    0.9355   -9.6668  -16.0580 N   0  0  0  0  0  0  0  0  0  0  0  0
   -1.1950   -8.9803  -16.7882 N   0  0  0  0  0  0  0  0  0  0  0  0
    3.0733  -10.3240  -15.3463 N   0  0  0  0  0  0  0  0  0  0  0  0
   -3.9544   -9.4462  -16.5199 O   0  0  0  0  0  0  0  0  0  0  0  0
   -1.7040  -10.9884  -16.4537 H   0  0  0  0  0  0  0  0  0  0  0  0
   -1.2427  -10.6202  -18.1305 H   0  0  0  0  0  0  0  0  0  0  0  0
   -1.5699   -7.2427  -15.6290 H   0  0  0  0  0  0  0  0  0  0  0  0
   -1.9163   -8.7901  -14.8257 H   0  0  0  0  0  0  0  0  0  0  0  0
   -3.3592   -9.4056  -18.5034 H   0  0  0  0  0  0  0  0  0  0  0  0
   -3.7167  -10.9987  -17.8290 H   0  0  0  0  0  0  0  0  0  0  0  0
   -4.0343   -7.7327  -15.4063 H   0  0  0  0  0  0  0  0  0  0  0  0
   -3.5471   -7.4956  -17.0869 H   0  0  0  0  0  0  0  0  0  0  0  0
   -0.4087   -8.2306  -20.0272 H   0  0  0  0  0  0  0  0  0  0  0  0
    0.9225   -7.0856  -20.2548 H   0  0  0  0  0  0  0  0  0  0  0  0
   -0.7545   -6.5345  -20.4074 H   0  0  0  0  0  0  0  0  0  0  0  0
    4.8012   -7.3822  -18.0011 H   0  0  0  0  0  0  0  0  0  0  0  0
    4.3330   -6.1323  -16.8377 H   0  0  0  0  0  0  0  0  0  0  0  0
    4.7434   -5.6832  -18.5019 H   0  0  0  0  0  0  0  0  0  0  0  0
    0.2100   -5.8237  -18.2165 H   0  0  0  0  0  0  0  0  0  0  0  0
   -1.1624   -6.8922  -18.0048 H   0  0  0  0  0  0  0  0  0  0  0  0
    2.2703   -5.6441  -18.1674 H   0  0  0  0  0  0  0  0  0  0  0  0
    2.7409   -6.8238  -19.3744 H   0  0  0  0  0  0  0  0  0  0  0  0
    4.0669  -10.2326  -15.3966 H   0  0  0  0  0  0  0  0  0  0  0  0
    2.6440  -11.0820  -14.8570 H   0  0  0  0  0  0  0  0  0  0  0  0
  1  2  2  0  0  0  0
  1  3  1  0  0  0  0
  1 11  1  0  0  0  0
  2 12  1  0  0  0  0
  2 13  1  0  0  0  0
  3 14  2  0  0  0  0
  3 15  1  0  0  0  0
  4 13  2  0  0  0  0
  4 14  1  0  0  0  0
  4 16  1  0  0  0  0
  5  7  1  0  0  0  0
  5 15  1  0  0  0  0
  6  8  1  0  0  0  0
  6 15  1  0  0  0  0
  7 17  1  0  0  0  0
  8 17  1  0  0  0  0
  9 11  1  0  0  0  0
 10 12  1  0  0  0  0
  5 18  1  0  0  0  0
  5 19  1  0  0  0  0
  6 20  1  0  0  0  0
  6 21  1  0  0  0  0
  7 22  1  0  0  0  0
  7 23  1  0  0  0  0
  8 24  1  0  0  0  0
  8 25  1  0  0  0  0
  9 26  1  0  0  0  0
  9 27  1  0  0  0  0
  9 28  1  0  0  0  0
 10 29  1  0  0  0  0
 10 30  1  0  0  0  0
 10 31  1  0  0  0  0
 11 32  1  0  0  0  0
 11 33  1  0  0  0  0
 12 34  1  0  0  0  0
 12 35  1  0  0  0  0
 16 36  1  0  0  0  0
 16 37  1  0  0  0  0
M  END
> <HYBRID receptor title>
27_FRAG(A) > 95F(A-200)

> <HYBRID receptor filename>
data/docking/pairs/27_frag.oedu

> <HYBRID Chemgauss4 score>
-12.661831

> <HYBRID receptor title>
27_FRAG(A) > 95F(A-200)

> <HYBRID receptor filename>
data/docking/pairs/27_frag.oedu

> <Dock Type>
Hybrid

$$$$
MOL0014
  -OEChem-08212416293D

 30 31  0     0  0  0  0  0  0999 V2000
    0.6982   -7.7464  -18.1094 C   0  0  0  0  0  0  0  0  0  0  0  0
    2.0605   -7.6218  -17.9294 C   0  0  0  0  0  0  0  0  0  0  0  0
    0.0646   -8.6431  -17.2738 C   0  0  0  0  0  0  0  0  0  0  0  0
    2.0302   -9.1577  -16.2535 C   0  0  0  0  0  0  0  0  0  0  0  0
   -3.3891   -9.7843  -17.8653 C   0  0  0  0  0  0  0  0  0  0  0  0
   -3.6087   -8.3666  -17.3631 C   0  0  0  0  0  0  0  0  0  0  0  0
   -1.9226   -9.7879  -18.2880 C   0  0  0  0  0  0  0  0  0  0  0  0
   -2.2907   -8.0256  -16.6733 C   0  0  0  0  0  0  0  0  0  0  0  0
   -0.0319   -6.9587  -19.1406 C   0  0  0  0  0  0  0  0  0  0  0  0
    2.8531   -6.6795  -18.7744 C   0  0  0  0  0  0  0  0  0  0  0  0
    2.7611   -8.3145  -17.0076 N   0  0  0  0  0  0  0  0  0  0  0  0
    0.7021   -9.3686  -16.3313 N   0  0  0  0  0  0  0  0  0  0  0  0
   -1.2978   -8.8083  -17.4041 N   0  0  0  0  0  0  0  0  0  0  0  0
    2.7311   -9.9004  -15.2785 N   0  0  0  0  0  0  0  0  0  0  0  0
   -3.5480  -10.5013  -17.0510 H   0  0  0  0  0  0  0  0  0  0  0  0
   -4.0609  -10.0431  -18.6886 H   0  0  0  0  0  0  0  0  0  0  0  0
   -3.7772   -7.6892  -18.2087 H   0  0  0  0  0  0  0  0  0  0  0  0
   -4.4646   -8.2927  -16.6864 H   0  0  0  0  0  0  0  0  0  0  0  0
   -1.4836  -10.7849  -18.1758 H   0  0  0  0  0  0  0  0  0  0  0  0
   -1.8165   -9.4669  -19.3304 H   0  0  0  0  0  0  0  0  0  0  0  0
   -2.0860   -6.9509  -16.7223 H   0  0  0  0  0  0  0  0  0  0  0  0
   -2.3092   -8.3378  -15.6230 H   0  0  0  0  0  0  0  0  0  0  0  0
   -0.0704   -7.4921  -20.1005 H   0  0  0  0  0  0  0  0  0  0  0  0
    0.4621   -5.9962  -19.3338 H   0  0  0  0  0  0  0  0  0  0  0  0
   -1.0611   -6.7594  -18.8147 H   0  0  0  0  0  0  0  0  0  0  0  0
    2.9055   -5.6838  -18.3166 H   0  0  0  0  0  0  0  0  0  0  0  0
    2.3949   -6.5527  -19.7634 H   0  0  0  0  0  0  0  0  0  0  0  0
    3.8740   -7.0562  -18.9084 H   0  0  0  0  0  0  0  0  0  0  0  0
    3.7249   -9.8139  -15.2238 H   0  0  0  0  0  0  0  0  0  0  0  0
    2.2362  -10.5759  -14.7337 H   0  0  0  0  0  0  0  0  0  0  0  0
  1  2  2  0  0  0  0
  1  3  1  0  0  0  0
  1  9  1  0  0  0  0
  2 10  1  0  0  0  0
  2 11  1  0  0  0  0
  3 12  2  0  0  0  0
  3 13  1  0  0  0  0
  4 11  2  0  0  0  0
  4 12  1  0  0  0  0
  4 14  1  0  0  0  0
  5  6  1  0  0  0  0
  5  7  1  0  0  0  0
  6  8  1  0  0  0  0
  7 13  1  0  0  0  0
  8 13  1  0  0  0  0
  5 15  1  0  0  0  0
  5 16  1  0  0  0  0
  6 17  1  0  0  0  0
  6 18  1  0  0  0  0
  7 19  1  0  0  0  0
  7 20  1  0  0  0  0
  8 21  1  0  0  0  0
  8 22  1  0  0  0  0
  9 23  1  0  0  0  0
  9 24  1  0  0  0  0
  9 25  1  0  0  0  0
 10 26  1  0  0  0  0
 10 27  1  0  0  0  0
 10 28  1  0  0  0  0
 14 29  1  0  0  0  0
 14 30  1  0  0  0  0
M  END
> <HYBRID receptor title>
27_FRAG(A) > 95F(A-200)

> <HYBRID receptor filename>
data/docking/pairs/27_frag.oedu

> <HYBRID Chemgauss4 score>
-12.652345

> <HYBRID receptor title>
27_FRAG(A) > 95F(A-200)

> <HYBRID receptor filename>
data/docking/pairs/27_frag.oedu

> <Dock Type>
Hybrid

$$$$
MOL0034
  -OEChem-08212416293D

 32 33  0     0  0  0  0  0  0999 V2000
    0.9903   -7.7854  -17.8700 C   0  0  0  0  0  0  0  0  0  0  0  0
    2.3431   -7.6560  -17.6309 C   0  0  0  0  0  0  0  0  0  0  0  0
    0.3253   -8.6888  -17.0667 C   0  0  0  0  0  0  0  0  0  0  0  0
    2.2474   -9.2003  -15.9652 C   0  0  0  0  0  0  0  0  0  0  0  0
   -1.5510   -9.3196  -18.5587 C   0  0  0  0  0  0  0  0  0  0  0  0
   -1.8726   -9.2199  -16.0964 C   0  0  0  0  0  0  0  0  0  0  0  0
   -3.0304   -8.9780  -18.6957 C   0  0  0  0  0  0  0  0  0  0  0  0
   -3.3342   -8.8852  -16.3709 C   0  0  0  0  0  0  0  0  0  0  0  0
    3.1673   -6.7062  -18.4365 C   0  0  0  0  0  0  0  0  0  0  0  0
    0.3019   -6.9955  -18.9279 C   0  0  0  0  0  0  0  0  0  0  0  0
    3.0064   -8.3503  -16.6830 N   0  0  0  0  0  0  0  0  0  0  0  0
    0.9247   -9.4163  -16.1011 N   0  0  0  0  0  0  0  0  0  0  0  0
   -1.0489   -8.8614  -17.2591 N   0  0  0  0  0  0  0  0  0  0  0  0
    2.9089   -9.9450  -14.9645 N   0  0  0  0  0  0  0  0  0  0  0  0
   -3.7698   -9.4870  -17.5883 O   0  0  0  0  0  0  0  0  0  0  0  0
    0.8825   -7.2897  -20.1933 O   0  0  0  0  0  0  0  0  0  0  0  0
   -1.4207  -10.4072  -18.6285 H   0  0  0  0  0  0  0  0  0  0  0  0
   -0.9910   -8.8536  -19.3780 H   0  0  0  0  0  0  0  0  0  0  0  0
   -1.5356   -8.6845  -15.2010 H   0  0  0  0  0  0  0  0  0  0  0  0
   -1.7745  -10.2971  -15.9099 H   0  0  0  0  0  0  0  0  0  0  0  0
   -3.1856   -7.8955  -18.7783 H   0  0  0  0  0  0  0  0  0  0  0  0
   -3.4329   -9.4372  -19.6044 H   0  0  0  0  0  0  0  0  0  0  0  0
   -3.9608   -9.2766  -15.5630 H   0  0  0  0  0  0  0  0  0  0  0  0
   -3.4964   -7.8014  -16.4152 H   0  0  0  0  0  0  0  0  0  0  0  0
    3.1955   -5.7126  -17.9721 H   0  0  0  0  0  0  0  0  0  0  0  0
    2.7514   -6.5764  -19.4436 H   0  0  0  0  0  0  0  0  0  0  0  0
    4.1945   -7.0780  -18.5282 H   0  0  0  0  0  0  0  0  0  0  0  0
   -0.7707   -7.2321  -18.9708 H   0  0  0  0  0  0  0  0  0  0  0  0
    0.3913   -5.9149  -18.7436 H   0  0  0  0  0  0  0  0  0  0  0  0
    3.8990   -9.8546  -14.8666 H   0  0  0  0  0  0  0  0  0  0  0  0
    2.3940  -10.6252  -14.4448 H   0  0  0  0  0  0  0  0  0  0  0  0
    0.4060   -6.7563  -20.8488 H   0  0  0  0  0  0  0  0  0  0  0  0
  1  2  2  0  0  0  0
  1  3  1  0  0  0  0
  1 10  1  0  0  0  0
  2  9  1  0  0  0  0
  2 11  1  0  0  0  0
  3 12  2  0  0  0  0
  3 13  1  0  0  0  0
  4 11  2  0  0  0  0
  4 12  1  0  0  0  0
  4 14  1  0  0  0  0
  5  7  1  0  0  0  0
  5 13  1  0  0  0  0
  6  8  1  0  0  0  0
  6 13  1  0  0  0  0
  7 15  1  0  0  0  0
  8 15  1  0  0  0  0
 10 16  1  0  0  0  0
  5 17  1  0  0  0  0
  5 18  1  0  0  0  0
  6 19  1  0  0  0  0
  6 20  1  0  0  0  0
  7 21  1  0  0  0  0
  7 22  1  0  0  0  0
  8 23  1  0  0  0  0
  8 24  1  0  0  0  0
  9 25  1  0  0  0  0
  9 26  1  0  0  0  0
  9 27  1  0  0  0  0
 10 28  1  0  0  0  0
 10 29  1  0  0  0  0
 14 30  1  0  0  0  0
 14 31  1  0  0  0  0
 16 32  1  0  0  0  0
M  END
> <HYBRID receptor title>
27_FRAG(A) > 95F(A-200)

> <HYBRID receptor filename>
data/docking/pairs/27_frag.oedu

> <HYBRID Chemgauss4 score>
-12.643993

> <HYBRID receptor title>
27_FRAG(A) > 95F(A-200)

> <HYBRID receptor filename>
data/docking/pairs/27_frag.oedu

> <Dock Type>
Hybrid

$$$$
MOL0043
  -OEChem-08212416293D

 43 44  0     0  0  0  0  0  0999 V2000
    0.9696   -7.8506  -17.3904 C   0  0  0  0  0  0  0  0  0  0  0  0
    2.3485   -7.8451  -17.3393 C   0  0  0  0  0  0  0  0  0  0  0  0
    0.3402   -8.6481  -16.4569 C   0  0  0  0  0  0  0  0  0  0  0  0
    2.3394   -9.2983  -15.5909 C   0  0  0  0  0  0  0  0  0  0  0  0
   -1.8348   -7.4733  -16.2420 C   0  0  0  0  0  0  0  0  0  0  0  0
   -1.7977   -9.9304  -16.2388 C   0  0  0  0  0  0  0  0  0  0  0  0
   -2.4389   -7.5345  -14.8390 C   0  0  0  0  0  0  0  0  0  0  0  0
   -2.3885   -9.9036  -14.8335 C   0  0  0  0  0  0  0  0  0  0  0  0
    3.1388   -7.0174  -18.2987 C   0  0  0  0  0  0  0  0  0  0  0  0
   -1.0120   -6.7543  -20.5735 C   0  0  0  0  0  0  0  0  0  0  0  0
   -1.4046   -8.8322  -19.2481 C   0  0  0  0  0  0  0  0  0  0  0  0
    0.7785   -8.4871  -20.4322 C   0  0  0  0  0  0  0  0  0  0  0  0
    0.2079   -7.0318  -18.4059 C   0  0  0  0  0  0  0  0  0  0  0  0
   -0.3449   -7.7904  -19.6457 C   0  0  0  0  0  0  0  0  0  0  0  0
    3.0682   -8.5596  -16.4493 N   0  0  0  0  0  0  0  0  0  0  0  0
    0.9964   -9.3884  -15.5391 N   0  0  0  0  0  0  0  0  0  0  0  0
   -1.0486   -8.6920  -16.4565 N   0  0  0  0  0  0  0  0  0  0  0  0
    3.0600  -10.0603  -14.6456 N   0  0  0  0  0  0  0  0  0  0  0  0
   -3.1962   -8.7351  -14.6605 O   0  0  0  0  0  0  0  0  0  0  0  0
   -2.6371   -7.4267  -16.9835 H   0  0  0  0  0  0  0  0  0  0  0  0
   -1.2149   -6.5792  -16.3360 H   0  0  0  0  0  0  0  0  0  0  0  0
   -1.1553  -10.8100  -16.3522 H   0  0  0  0  0  0  0  0  0  0  0  0
   -2.6074   -9.9957  -16.9752 H   0  0  0  0  0  0  0  0  0  0  0  0
   -1.6633   -7.4697  -14.0665 H   0  0  0  0  0  0  0  0  0  0  0  0
   -3.1187   -6.6889  -14.6930 H   0  0  0  0  0  0  0  0  0  0  0  0
   -3.0299  -10.7748  -14.6847 H   0  0  0  0  0  0  0  0  0  0  0  0
   -1.6080   -9.9287  -14.0679 H   0  0  0  0  0  0  0  0  0  0  0  0
    3.3215   -6.0121  -17.8990 H   0  0  0  0  0  0  0  0  0  0  0  0
    2.6031   -6.8912  -19.2481 H   0  0  0  0  0  0  0  0  0  0  0  0
    4.1053   -7.4924  -18.5038 H   0  0  0  0  0  0  0  0  0  0  0  0
   -0.2968   -5.9853  -20.8877 H   0  0  0  0  0  0  0  0  0  0  0  0
   -1.8447   -6.2507  -20.0699 H   0  0  0  0  0  0  0  0  0  0  0  0
   -1.4097   -7.2272  -21.4795 H   0  0  0  0  0  0  0  0  0  0  0  0
   -0.9783   -9.5944  -18.5855 H   0  0  0  0  0  0  0  0  0  0  0  0
   -1.8031   -9.3456  -20.1292 H   0  0  0  0  0  0  0  0  0  0  0  0
   -2.2436   -8.3748  -18.7130 H   0  0  0  0  0  0  0  0  0  0  0  0
    1.2871   -9.2365  -19.8157 H   0  0  0  0  0  0  0  0  0  0  0  0
    1.5334   -7.7643  -20.7640 H   0  0  0  0  0  0  0  0  0  0  0  0
    0.3973   -8.9863  -21.3291 H   0  0  0  0  0  0  0  0  0  0  0  0
   -0.6213   -6.5311  -17.8869 H   0  0  0  0  0  0  0  0  0  0  0  0
    0.8605   -6.2133  -18.7420 H   0  0  0  0  0  0  0  0  0  0  0  0
    4.0583  -10.0640  -14.6842 H   0  0  0  0  0  0  0  0  0  0  0  0
    2.5604  -10.6631  -14.0250 H   0  0  0  0  0  0  0  0  0  0  0  0
  1  2  2  0  0  0  0
  1  3  1  0  0  0  0
  1 13  1  0  0  0  0
  2  9  1  0  0  0  0
  2 15  1  0  0  0  0
  3 16  2  0  0  0  0
  3 17  1  0  0  0  0
  4 15  2  0  0  0  0
  4 16  1  0  0  0  0
  4 18  1  0  0  0  0
  5  7  1  0  0  0  0
  5 17  1  0  0  0  0
  6  8  1  0  0  0  0
  6 17  1  0  0  0  0
  7 19  1  0  0  0  0
  8 19  1  0  0  0  0
 10 14  1  0  0  0  0
 11 14  1  0  0  0  0
 12 14  1  0  0  0  0
 13 14  1  0  0  0  0
  5 20  1  0  0  0  0
  5 21  1  0  0  0  0
  6 22  1  0  0  0  0
  6 23  1  0  0  0  0
  7 24  1  0  0  0  0
  7 25  1  0  0  0  0
  8 26  1  0  0  0  0
  8 27  1  0  0  0  0
  9 28  1  0  0  0  0
  9 29  1  0  0  0  0
  9 30  1  0  0  0  0
 10 31  1  0  0  0  0
 10 32  1  0  0  0  0
 10 33  1  0  0  0  0
 11 34  1  0  0  0  0
 11 35  1  0  0  0  0
 11 36  1  0  0  0  0
 12 37  1  0  0  0  0
 12 38  1  0  0  0  0
 12 39  1  0  0  0  0
 13 40  1  0  0  0  0
 13 41  1  0  0  0  0
 18 42  1  0  0  0  0
 18 43  1  0  0  0  0
M  END
> <HYBRID receptor title>
27_FRAG(A) > 95F(A-200)

> <HYBRID receptor filename>
data/docking/pairs/27_frag.oedu

> <HYBRID Chemgauss4 score>
-12.597107

> <HYBRID receptor title>
27_FRAG(A) > 95F(A-200)

> <HYBRID receptor filename>
data/docking/pairs/27_frag.oedu

> <Dock Type>
Hybrid

$$$$
MOL0045
  -OEChem-08212416293D

 34 35  0     0  0  0  0  0  0999 V2000
    0.7242   -8.0621  -17.7593 C   0  0  0  0  0  0  0  0  0  0  0  0
    2.0729   -7.8398  -17.5712 C   0  0  0  0  0  0  0  0  0  0  0  0
    0.1559   -9.0164  -16.9408 C   0  0  0  0  0  0  0  0  0  0  0  0
    2.1508   -9.4003  -15.9197 C   0  0  0  0  0  0  0  0  0  0  0  0
   -2.1208   -9.0850  -15.9567 C   0  0  0  0  0  0  0  0  0  0  0  0
   -1.7300  -10.1417  -18.1405 C   0  0  0  0  0  0  0  0  0  0  0  0
   -2.5277  -10.4594  -15.4251 C   0  0  0  0  0  0  0  0  0  0  0  0
   -2.1361  -11.4778  -17.5286 C   0  0  0  0  0  0  0  0  0  0  0  0
   -0.0587   -7.3141  -18.7814 C   0  0  0  0  0  0  0  0  0  0  0  0
    4.2512   -7.2167  -18.6444 C   0  0  0  0  0  0  0  0  0  0  0  0
    2.7964   -6.8281  -18.3977 C   0  0  0  0  0  0  0  0  0  0  0  0
    2.8198   -8.4934  -16.6571 N   0  0  0  0  0  0  0  0  0  0  0  0
    0.8421   -9.7077  -16.0069 N   0  0  0  0  0  0  0  0  0  0  0  0
   -1.2008   -9.2819  -17.0810 N   0  0  0  0  0  0  0  0  0  0  0  0
    2.9014  -10.1046  -14.9533 N   0  0  0  0  0  0  0  0  0  0  0  0
   -3.0754  -11.2697  -16.4692 O   0  0  0  0  0  0  0  0  0  0  0  0
   -3.0072   -8.5553  -16.3063 H   0  0  0  0  0  0  0  0  0  0  0  0
   -1.6487   -8.5121  -15.1606 H   0  0  0  0  0  0  0  0  0  0  0  0
   -0.9845  -10.3081  -18.9203 H   0  0  0  0  0  0  0  0  0  0  0  0
   -2.6073   -9.6648  -18.5851 H   0  0  0  0  0  0  0  0  0  0  0  0
   -1.6781  -10.9772  -14.9639 H   0  0  0  0  0  0  0  0  0  0  0  0
   -3.2982  -10.3440  -14.6561 H   0  0  0  0  0  0  0  0  0  0  0  0
   -2.6213  -12.0991  -18.2842 H   0  0  0  0  0  0  0  0  0  0  0  0
   -1.2697  -12.0275  -17.1501 H   0  0  0  0  0  0  0  0  0  0  0  0
   -0.0544   -7.8335  -19.7496 H   0  0  0  0  0  0  0  0  0  0  0  0
    0.3633   -6.3148  -18.9572 H   0  0  0  0  0  0  0  0  0  0  0  0
   -1.1010   -7.1968  -18.4570 H   0  0  0  0  0  0  0  0  0  0  0  0
    4.3203   -8.1957  -19.1309 H   0  0  0  0  0  0  0  0  0  0  0  0
    4.8091   -7.2692  -17.7035 H   0  0  0  0  0  0  0  0  0  0  0  0
    4.7426   -6.4818  -19.2895 H   0  0  0  0  0  0  0  0  0  0  0  0
    2.7639   -5.8422  -17.9091 H   0  0  0  0  0  0  0  0  0  0  0  0
    2.2886   -6.6924  -19.3655 H   0  0  0  0  0  0  0  0  0  0  0  0
    3.8859   -9.9457  -14.8927 H   0  0  0  0  0  0  0  0  0  0  0  0
    2.4561  -10.8236  -14.4214 H   0  0  0  0  0  0  0  0  0  0  0  0
  1  2  2  0  0  0  0
  1  3  1  0  0  0  0
  1  9  1  0  0  0  0
  2 11  1  0  0  0  0
  2 12  1  0  0  0  0
  3 13  2  0  0  0  0
  3 14  1  0  0  0  0
  4 12  2  0  0  0  0
  4 13  1  0  0  0  0
  4 15  1  0  0  0  0
  5  7  1  0  0  0  0
  5 14  1  0  0  0  0
  6  8  1  0  0  0  0
  6 14  1  0  0  0  0
  7 16  1  0  0  0  0
  8 16  1  0  0  0  0
 10 11  1  0  0  0  0
  5 17  1  0  0  0  0
  5 18  1  0  0  0  0
  6 19  1  0  0  0  0
  6 20  1  0  0  0  0
  7 21  1  0  0  0  0
  7 22  1  0  0  0  0
  8 23  1  0  0  0  0
  8 24  1  0  0  0  0
  9 25  1  0  0  0  0
  9 26  1  0  0  0  0
  9 27  1  0  0  0  0
 10 28  1  0  0  0  0
 10 29  1  0  0  0  0
 10 30  1  0  0  0  0
 11 31  1  0  0  0  0
 11 32  1  0  0  0  0
 15 33  1  0  0  0  0
 15 34  1  0  0  0  0
M  END
> <HYBRID receptor title>
27_FRAG(A) > 95F(A-200)

> <HYBRID receptor filename>
data/docking/pairs/27_frag.oedu

> <HYBRID Chemgauss4 score>
-12.585606

> <HYBRID receptor title>
27_FRAG(A) > 95F(A-200)

> <HYBRID receptor filename>
data/docking/pairs/27_frag.oedu

> <Dock Type>
Hybrid

$$$$
MOL0010
  -OEChem-08212416293D

 43 44  0     0  0  0  0  0  0999 V2000
    0.6006   -8.1328  -16.8651 C   0  0  0  0  0  0  0  0  0  0  0  0
    1.9691   -8.1414  -17.0412 C   0  0  0  0  0  0  0  0  0  0  0  0
    0.1333   -8.8446  -15.7794 C   0  0  0  0  0  0  0  0  0  0  0  0
    2.2477   -9.4496  -15.2029 C   0  0  0  0  0  0  0  0  0  0  0  0
   -1.9599  -10.1509  -15.5424 C   0  0  0  0  0  0  0  0  0  0  0  0
   -1.8265   -7.8145  -14.7061 C   0  0  0  0  0  0  0  0  0  0  0  0
   -3.4512   -9.9161  -15.7544 C   0  0  0  0  0  0  0  0  0  0  0  0
   -3.3254   -7.7106  -14.9635 C   0  0  0  0  0  0  0  0  0  0  0  0
    2.5908   -7.4037  -18.1812 C   0  0  0  0  0  0  0  0  0  0  0  0
   -3.4713   -8.6024  -19.0693 C   0  0  0  0  0  0  0  0  0  0  0  0
   -0.3160   -7.3895  -17.8033 C   0  0  0  0  0  0  0  0  0  0  0  0
   -2.8619   -7.2518  -19.4097 C   0  0  0  0  0  0  0  0  0  0  0  0
   -0.5206   -8.1504  -19.1139 C   0  0  0  0  0  0  0  0  0  0  0  0
   -1.4796   -7.4048  -20.0436 C   0  0  0  0  0  0  0  0  0  0  0  0
    2.8254   -8.7917  -16.2262 N   0  0  0  0  0  0  0  0  0  0  0  0
    0.9315   -9.5175  -14.9246 N   0  0  0  0  0  0  0  0  0  0  0  0
   -1.2452   -8.8702  -15.5465 N   0  0  0  0  0  0  0  0  0  0  0  0
    3.1140  -10.1429  -14.3298 N   0  0  0  0  0  0  0  0  0  0  0  0
   -3.9543   -8.9806  -14.8036 O   0  0  0  0  0  0  0  0  0  0  0  0
   -1.8004  -10.6470  -14.5726 H   0  0  0  0  0  0  0  0  0  0  0  0
   -1.5769  -10.8189  -16.3277 H   0  0  0  0  0  0  0  0  0  0  0  0
   -1.3490   -6.8438  -14.9048 H   0  0  0  0  0  0  0  0  0  0  0  0
   -1.6517   -8.0641  -13.6481 H   0  0  0  0  0  0  0  0  0  0  0  0
   -3.6603   -9.5600  -16.7704 H   0  0  0  0  0  0  0  0  0  0  0  0
   -3.9962  -10.8557  -15.6178 H   0  0  0  0  0  0  0  0  0  0  0  0
   -3.7772   -7.0220  -14.2421 H   0  0  0  0  0  0  0  0  0  0  0  0
   -3.5344   -7.3179  -15.9660 H   0  0  0  0  0  0  0  0  0  0  0  0
    2.8365   -6.3721  -17.8997 H   0  0  0  0  0  0  0  0  0  0  0  0
    1.9063   -7.3469  -19.0370 H   0  0  0  0  0  0  0  0  0  0  0  0
    3.5105   -7.9063  -18.5026 H   0  0  0  0  0  0  0  0  0  0  0  0
   -2.8269   -9.1617  -18.3834 H   0  0  0  0  0  0  0  0  0  0  0  0
   -4.4525   -8.4831  -18.5989 H   0  0  0  0  0  0  0  0  0  0  0  0
   -3.6003   -9.1997  -19.9780 H   0  0  0  0  0  0  0  0  0  0  0  0
    0.0993   -6.3929  -18.0038 H   0  0  0  0  0  0  0  0  0  0  0  0
   -1.2810   -7.2186  -17.3083 H   0  0  0  0  0  0  0  0  0  0  0  0
   -3.5299   -6.7189  -20.0960 H   0  0  0  0  0  0  0  0  0  0  0  0
   -2.7883   -6.6502  -18.4963 H   0  0  0  0  0  0  0  0  0  0  0  0
    0.4445   -8.2907  -19.6182 H   0  0  0  0  0  0  0  0  0  0  0  0
   -0.9168   -9.1524  -18.9062 H   0  0  0  0  0  0  0  0  0  0  0  0
   -1.0701   -6.4143  -20.2759 H   0  0  0  0  0  0  0  0  0  0  0  0
   -1.5690   -7.9482  -20.9919 H   0  0  0  0  0  0  0  0  0  0  0  0
    4.0924  -10.1628  -14.5310 H   0  0  0  0  0  0  0  0  0  0  0  0
    2.7234  -10.6874  -13.5888 H   0  0  0  0  0  0  0  0  0  0  0  0
  1  2  1  0  0  0  0
  1  3  2  0  0  0  0
  1 11  1  0  0  0  0
  2  9  1  0  0  0  0
  2 15  2  0  0  0  0
  3 16  1  0  0  0  0
  3 17  1  0  0  0  0
  4 15  1  0  0  0  0
  4 16  2  0  0  0  0
  4 18  1  0  0  0  0
  5  7  1  0  0  0  0
  5 17  1  0  0  0  0
  6  8  1  0  0  0  0
  6 17  1  0  0  0  0
  7 19  1  0  0  0  0
  8 19  1  0  0  0  0
 10 12  1  0  0  0  0
 11 13  1  0  0  0  0
 12 14  1  0  0  0  0
 13 14  1  0  0  0  0
  5 20  1  0  0  0  0
  5 21  1  0  0  0  0
  6 22  1  0  0  0  0
  6 23  1  0  0  0  0
  7 24  1  0  0  0  0
  7 25  1  0  0  0  0
  8 26  1  0  0  0  0
  8 27  1  0  0  0  0
  9 28  1  0  0  0  0
  9 29  1  0  0  0  0
  9 30  1  0  0  0  0
 10 31  1  0  0  0  0
 10 32  1  0  0  0  0
 10 33  1  0  0  0  0
 11 34  1  0  0  0  0
 11 35  1  0  0  0  0
 12 36  1  0  0  0  0
 12 37  1  0  0  0  0
 13 38  1  0  0  0  0
 13 39  1  0  0  0  0
 14 40  1  0  0  0  0
 14 41  1  0  0  0  0
 18 42  1  0  0  0  0
 18 43  1  0  0  0  0
M  END
> <HYBRID receptor title>
27_FRAG(A) > 95F(A-200)

> <HYBRID receptor filename>
data/docking/pairs/27_frag.oedu

> <HYBRID Chemgauss4 score>
-12.442004

> <HYBRID receptor title>
27_FRAG(A) > 95F(A-200)

> <HYBRID receptor filename>
data/docking/pairs/27_frag.oedu

> <Dock Type>
Hybrid

$$$$
MOL0036
  -OEChem-08212416293D

 35 36  0     0  0  0  0  0  0999 V2000
    0.8592   -7.8258  -17.4315 C   0  0  0  0  0  0  0  0  0  0  0  0
    2.2365   -7.7794  -17.3613 C   0  0  0  0  0  0  0  0  0  0  0  0
    0.2485   -8.7361  -16.5936 C   0  0  0  0  0  0  0  0  0  0  0  0
    2.2602   -9.4050  -15.7720 C   0  0  0  0  0  0  0  0  0  0  0  0
   -1.9671   -7.6596  -16.2947 C   0  0  0  0  0  0  0  0  0  0  0  0
   -1.8481  -10.1015  -16.5431 C   0  0  0  0  0  0  0  0  0  0  0  0
   -2.5869   -7.8844  -14.9154 C   0  0  0  0  0  0  0  0  0  0  0  0
   -2.4575  -10.2386  -15.1523 C   0  0  0  0  0  0  0  0  0  0  0  0
    3.0019   -6.8311  -18.2240 C   0  0  0  0  0  0  0  0  0  0  0  0
   -0.9047   -6.4938  -20.3523 C   0  0  0  0  0  0  0  0  0  0  0  0
   -0.1040   -7.5244  -19.5852 C   0  0  0  0  0  0  0  0  0  0  0  0
    2.9716   -8.5575  -16.5398 N   0  0  0  0  0  0  0  0  0  0  0  0
    0.9206   -9.5448  -15.7481 N   0  0  0  0  0  0  0  0  0  0  0  0
   -1.1380   -8.8240  -16.6204 N   0  0  0  0  0  0  0  0  0  0  0  0
    2.9963  -10.2334  -14.8969 N   0  0  0  0  0  0  0  0  0  0  0  0
   -3.3059   -9.1205  -14.8734 O   0  0  0  0  0  0  0  0  0  0  0  0
    0.1591   -7.0260  -18.2708 O   0  0  0  0  0  0  0  0  0  0  0  0
   -2.7601   -7.5644  -17.0367 H   0  0  0  0  0  0  0  0  0  0  0  0
   -1.3730   -6.7476  -16.2824 H   0  0  0  0  0  0  0  0  0  0  0  0
   -1.1726  -10.9382  -16.7305 H   0  0  0  0  0  0  0  0  0  0  0  0
   -2.6449  -10.1151  -17.2912 H   0  0  0  0  0  0  0  0  0  0  0  0
   -1.8239   -7.8749  -14.1278 H   0  0  0  0  0  0  0  0  0  0  0  0
   -3.2963   -7.0805  -14.6945 H   0  0  0  0  0  0  0  0  0  0  0  0
   -3.0713  -11.1405  -15.1041 H   0  0  0  0  0  0  0  0  0  0  0  0
   -1.6865  -10.3176  -14.3807 H   0  0  0  0  0  0  0  0  0  0  0  0
    3.1443   -5.8651  -17.7233 H   0  0  0  0  0  0  0  0  0  0  0  0
    2.4686   -6.6292  -19.1616 H   0  0  0  0  0  0  0  0  0  0  0  0
    3.9870   -7.2473  -18.4655 H   0  0  0  0  0  0  0  0  0  0  0  0
   -1.8592   -6.2934  -19.8574 H   0  0  0  0  0  0  0  0  0  0  0  0
   -0.3463   -5.5559  -20.4366 H   0  0  0  0  0  0  0  0  0  0  0  0
   -1.1014   -6.8397  -21.3722 H   0  0  0  0  0  0  0  0  0  0  0  0
    0.8491   -7.7201  -20.0853 H   0  0  0  0  0  0  0  0  0  0  0  0
   -0.6636   -8.4612  -19.5010 H   0  0  0  0  0  0  0  0  0  0  0  0
    3.9943  -10.1980  -14.9196 H   0  0  0  0  0  0  0  0  0  0  0  0
    2.5112  -10.9131  -14.3486 H   0  0  0  0  0  0  0  0  0  0  0  0
  1  2  1  0  0  0  0
  1  3  2  0  0  0  0
  1 17  1  0  0  0  0
  2  9  1  0  0  0  0
  2 12  2  0  0  0  0
  3 13  1  0  0  0  0
  3 14  1  0  0  0  0
  4 12  1  0  0  0  0
  4 13  2  0  0  0  0
  4 15  1  0  0  0  0
  5  7  1  0  0  0  0
  5 14  1  0  0  0  0
  6  8  1  0  0  0  0
  6 14  1  0  0  0  0
  7 16  1  0  0  0  0
  8 16  1  0  0  0  0
 10 11  1  0  0  0  0
 11 17  1  0  0  0  0
  5 18  1  0  0  0  0
  5 19  1  0  0  0  0
  6 20  1  0  0  0  0
  6 21  1  0  0  0  0
  7 22  1  0  0  0  0
  7 23  1  0  0  0  0
  8 24  1  0  0  0  0
  8 25  1  0  0  0  0
  9 26  1  0  0  0  0
  9 27  1  0  0  0  0
  9 28  1  0  0  0  0
 10 29  1  0  0  0  0
 10 30  1  0  0  0  0
 10 31  1  0  0  0  0
 11 32  1  0  0  0  0
 11 33  1  0  0  0  0
 15 34  1  0  0  0  0
 15 35  1  0  0  0  0
M  END
> <HYBRID receptor title>
27_FRAG(A) > 95F(A-200)

> <HYBRID receptor filename>
data/docking/pairs/27_frag.oedu

> <HYBRID Chemgauss4 score>
-12.406845

> <HYBRID receptor title>
27_FRAG(A) > 95F(A-200)

> <HYBRID receptor filename>
data/docking/pairs/27_frag.oedu

> <Dock Type>
Hybrid

$$$$
MOL0020
  -OEChem-08212416293D

 31 32  0     0  0  0  0  0  0999 V2000
    2.1868   -7.4919  -17.7536 C   0  0  0  0  0  0  0  0  0  0  0  0
    0.8121   -7.6059  -17.7884 C   0  0  0  0  0  0  0  0  0  0  0  0
    0.2713   -8.5693  -16.9619 C   0  0  0  0  0  0  0  0  0  0  0  0
    2.3361   -9.1586  -16.2146 C   0  0  0  0  0  0  0  0  0  0  0  0
   -1.7034  -10.0213  -17.3312 C   0  0  0  0  0  0  0  0  0  0  0  0
   -1.9045   -7.9261  -16.0100 C   0  0  0  0  0  0  0  0  0  0  0  0
   -3.1671   -9.8370  -17.7158 C   0  0  0  0  0  0  0  0  0  0  0  0
   -3.3572   -7.8596  -16.4671 C   0  0  0  0  0  0  0  0  0  0  0  0
    0.0463   -7.1680  -20.1349 C   0  0  0  0  0  0  0  0  0  0  0  0
   -0.0016   -6.7297  -18.6714 C   0  0  0  0  0  0  0  0  0  0  0  0
    2.9825   -8.2548  -16.9756 N   0  0  0  0  0  0  0  0  0  0  0  0
    1.0064   -9.3667  -16.1591 N   0  0  0  0  0  0  0  0  0  0  0  0
   -1.1176   -8.7306  -16.9547 N   0  0  0  0  0  0  0  0  0  0  0  0
    3.1375   -9.9749  -15.3869 N   0  0  0  0  0  0  0  0  0  0  0  0
   -3.8806   -9.1694  -16.6778 O   0  0  0  0  0  0  0  0  0  0  0  0
    2.7099   -6.7642  -18.3660 H   0  0  0  0  0  0  0  0  0  0  0  0
   -1.6352  -10.7072  -16.4771 H   0  0  0  0  0  0  0  0  0  0  0  0
   -1.1579  -10.4652  -18.1722 H   0  0  0  0  0  0  0  0  0  0  0  0
   -1.4981   -6.9110  -15.9307 H   0  0  0  0  0  0  0  0  0  0  0  0
   -1.8560   -8.3940  -15.0182 H   0  0  0  0  0  0  0  0  0  0  0  0
   -3.2675   -9.2771  -18.6534 H   0  0  0  0  0  0  0  0  0  0  0  0
   -3.6355  -10.8151  -17.8662 H   0  0  0  0  0  0  0  0  0  0  0  0
   -3.9657   -7.3779  -15.6949 H   0  0  0  0  0  0  0  0  0  0  0  0
   -3.4628   -7.2671  -17.3840 H   0  0  0  0  0  0  0  0  0  0  0  0
   -0.2869   -8.2058  -20.2442 H   0  0  0  0  0  0  0  0  0  0  0  0
    1.0650   -7.0989  -20.5307 H   0  0  0  0  0  0  0  0  0  0  0  0
   -0.6008   -6.5371  -20.7522 H   0  0  0  0  0  0  0  0  0  0  0  0
    0.3399   -5.6830  -18.6018 H   0  0  0  0  0  0  0  0  0  0  0  0
   -1.0537   -6.7117  -18.3381 H   0  0  0  0  0  0  0  0  0  0  0  0
    4.1316   -9.8895  -15.4368 H   0  0  0  0  0  0  0  0  0  0  0  0
    2.7028  -10.6938  -14.8463 H   0  0  0  0  0  0  0  0  0  0  0  0
  1  2  1  0  0  0  0
  1 11  2  0  0  0  0
  2  3  2  0  0  0  0
  2 10  1  0  0  0  0
  3 12  1  0  0  0  0
  3 13  1  0  0  0  0
  4 11  1  0  0  0  0
  4 12  2  0  0  0  0
  4 14  1  0  0  0  0
  5  7  1  0  0  0  0
  5 13  1  0  0  0  0
  6  8  1  0  0  0  0
  6 13  1  0  0  0  0
  7 15  1  0  0  0  0
  8 15  1  0  0  0  0
  9 10  1  0  0  0  0
  1 16  1  0  0  0  0
  5 17  1  0  0  0  0
  5 18  1  0  0  0  0
  6 19  1  0  0  0  0
  6 20  1  0  0  0  0
  7 21  1  0  0  0  0
  7 22  1  0  0  0  0
  8 23  1  0  0  0  0
  8 24  1  0  0  0  0
  9 25  1  0  0  0  0
  9 26  1  0  0  0  0
  9 27  1  0  0  0  0
 10 28  1  0  0  0  0
 10 29  1  0  0  0  0
 14 30  1  0  0  0  0
 14 31  1  0  0  0  0
M  END
> <HYBRID receptor title>
27_FRAG(A) > 95F(A-200)

> <HYBRID receptor filename>
data/docking/pairs/27_frag.oedu

> <HYBRID Chemgauss4 score>
-12.398474

> <HYBRID receptor title>
27_FRAG(A) > 95F(A-200)

> <HYBRID receptor filename>
data/docking/pairs/27_frag.oedu

> <Dock Type>
Hybrid

$$$$
MOL0033
  -OEChem-08212416293D

 40 41  0     0  0  0  0  0  0999 V2000
    0.6035   -7.8681  -17.8410 C   0  0  0  0  0  0  0  0  0  0  0  0
    1.9687   -7.6854  -17.7587 C   0  0  0  0  0  0  0  0  0  0  0  0
    0.0688   -8.7835  -16.9578 C   0  0  0  0  0  0  0  0  0  0  0  0
    2.1215   -9.2074  -16.0767 C   0  0  0  0  0  0  0  0  0  0  0  0
   -1.8224  -10.3535  -17.2783 C   0  0  0  0  0  0  0  0  0  0  0  0
   -2.1719   -8.1672  -16.1495 C   0  0  0  0  0  0  0  0  0  0  0  0
   -3.2749  -10.2717  -17.7338 C   0  0  0  0  0  0  0  0  0  0  0  0
   -3.6052   -8.2082  -16.6668 C   0  0  0  0  0  0  0  0  0  0  0  0
    2.6594   -6.7180  -18.6627 C   0  0  0  0  0  0  0  0  0  0  0  0
   -1.8210   -7.1543  -20.7891 C   0  0  0  0  0  0  0  0  0  0  0  0
   -0.0495   -8.9140  -20.6250 C   0  0  0  0  0  0  0  0  0  0  0  0
   -0.2300   -7.1200  -18.8220 C   0  0  0  0  0  0  0  0  0  0  0  0
   -0.9974   -8.0149  -19.8276 C   0  0  0  0  0  0  0  0  0  0  0  0
    2.7612   -8.3408  -16.8851 N   0  0  0  0  0  0  0  0  0  0  0  0
    0.8012   -9.4740  -16.0590 N   0  0  0  0  0  0  0  0  0  0  0  0
   -1.3106   -9.0094  -16.9908 N   0  0  0  0  0  0  0  0  0  0  0  0
    2.9201   -9.9122  -15.1499 N   0  0  0  0  0  0  0  0  0  0  0  0
   -4.0609   -9.5544  -16.7851 O   0  0  0  0  0  0  0  0  0  0  0  0
   -1.7605  -10.9616  -16.3667 H   0  0  0  0  0  0  0  0  0  0  0  0
   -1.2223  -10.8396  -18.0565 H   0  0  0  0  0  0  0  0  0  0  0  0
   -1.8144   -7.1309  -16.1414 H   0  0  0  0  0  0  0  0  0  0  0  0
   -2.1452   -8.5478  -15.1203 H   0  0  0  0  0  0  0  0  0  0  0  0
   -3.3598   -9.7974  -18.7190 H   0  0  0  0  0  0  0  0  0  0  0  0
   -3.6929  -11.2800  -17.8183 H   0  0  0  0  0  0  0  0  0  0  0  0
   -4.2669   -7.6932  -15.9628 H   0  0  0  0  0  0  0  0  0  0  0  0
   -3.6975   -7.7000  -17.6343 H   0  0  0  0  0  0  0  0  0  0  0  0
    2.7020   -5.7172  -18.2151 H   0  0  0  0  0  0  0  0  0  0  0  0
    2.1274   -6.6186  -19.6174 H   0  0  0  0  0  0  0  0  0  0  0  0
    3.6831   -7.0530  -18.8667 H   0  0  0  0  0  0  0  0  0  0  0  0
   -1.1732   -6.4882  -21.3685 H   0  0  0  0  0  0  0  0  0  0  0  0
   -2.3711   -7.7823  -21.4976 H   0  0  0  0  0  0  0  0  0  0  0  0
   -2.5463   -6.5367  -20.2483 H   0  0  0  0  0  0  0  0  0  0  0  0
    0.6728   -8.3232  -21.1983 H   0  0  0  0  0  0  0  0  0  0  0  0
    0.5224   -9.5652  -19.9550 H   0  0  0  0  0  0  0  0  0  0  0  0
   -0.6004   -9.5512  -21.3250 H   0  0  0  0  0  0  0  0  0  0  0  0
    0.3825   -6.3926  -19.3844 H   0  0  0  0  0  0  0  0  0  0  0  0
   -0.9578   -6.5015  -18.2672 H   0  0  0  0  0  0  0  0  0  0  0  0
   -1.6944   -8.6590  -19.2764 H   0  0  0  0  0  0  0  0  0  0  0  0
    3.9107   -9.7840  -15.1662 H   0  0  0  0  0  0  0  0  0  0  0  0
    2.4938  -10.6032  -14.5678 H   0  0  0  0  0  0  0  0  0  0  0  0
  1  2  2  0  0  0  0
  1  3  1  0  0  0  0
  1 12  1  0  0  0  0
  2  9  1  0  0  0  0
  2 14  1  0  0  0  0
  3 15  2  0  0  0  0
  3 16  1  0  0  0  0
  4 14  2  0  0  0  0
  4 15  1  0  0  0  0
  4 17  1  0  0  0  0
  5  7  1  0  0  0  0
  5 16  1  0  0  0  0
  6  8  1  0  0  0  0
  6 16  1  0  0  0  0
  7 18  1  0  0  0  0
  8 18  1  0  0  0  0
 10 13  1  0  0  0  0
 11 13  1  0  0  0  0
 12 13  1  0  0  0  0
  5 19  1  0  0  0  0
  5 20  1  0  0  0  0
  6 21  1  0  0  0  0
  6 22  1  0  0  0  0
  7 23  1  0  0  0  0
  7 24  1  0  0  0  0
  8 25  1  0  0  0  0
  8 26  1  0  0  0  0
  9 27  1  0  0  0  0
  9 28  1  0  0  0  0
  9 29  1  0  0  0  0
 10 30  1  0  0  0  0
 10 31  1  0  0  0  0
 10 32  1  0  0  0  0
 11 33  1  0  0  0  0
 11 34  1  0  0  0  0
 11 35  1  0  0  0  0
 12 36  1  0  0  0  0
 12 37  1  0  0  0  0
 13 38  1  0  0  0  0
 17 39  1  0  0  0  0
 17 40  1  0  0  0  0
M  END
> <HYBRID receptor title>
27_FRAG(A) > 95F(A-200)

> <HYBRID receptor filename>
data/docking/pairs/27_frag.oedu

> <HYBRID Chemgauss4 score>
-12.287355

> <HYBRID receptor title>
27_FRAG(A) > 95F(A-200)

> <HYBRID receptor filename>
data/docking/pairs/27_frag.oedu

> <Dock Type>
Hybrid

$$$$
MOL0049
  -OEChem-08212416293D

 28 29  0     0  0  0  0  0  0999 V2000
    2.4938   -7.7740  -17.2845 C   0  0  0  0  0  0  0  0  0  0  0  0
    1.1391   -7.8709  -17.5286 C   0  0  0  0  0  0  0  0  0  0  0  0
    0.4689   -8.8349  -16.8040 C   0  0  0  0  0  0  0  0  0  0  0  0
    2.3899   -9.4559  -15.7583 C   0  0  0  0  0  0  0  0  0  0  0  0
   -1.3972   -9.9039  -18.0366 C   0  0  0  0  0  0  0  0  0  0  0  0
   -1.8050   -8.7629  -15.8668 C   0  0  0  0  0  0  0  0  0  0  0  0
   -2.8324   -9.5522  -18.4118 C   0  0  0  0  0  0  0  0  0  0  0  0
   -3.2177   -8.4761  -16.3626 C   0  0  0  0  0  0  0  0  0  0  0  0
    0.4784   -6.9772  -18.5156 C   0  0  0  0  0  0  0  0  0  0  0  0
    3.1540   -8.5534  -16.4029 N   0  0  0  0  0  0  0  0  0  0  0  0
    1.0650   -9.6483  -15.9073 N   0  0  0  0  0  0  0  0  0  0  0  0
   -0.9067   -8.9793  -17.0091 N   0  0  0  0  0  0  0  0  0  0  0  0
    3.0475  -10.2891  -14.8273 N   0  0  0  0  0  0  0  0  0  0  0  0
   -3.6585   -9.5009  -17.2512 O   0  0  0  0  0  0  0  0  0  0  0  0
    3.1116   -7.0474  -17.8028 H   0  0  0  0  0  0  0  0  0  0  0  0
   -1.3649  -10.9271  -17.6409 H   0  0  0  0  0  0  0  0  0  0  0  0
   -0.7649   -9.8617  -18.9312 H   0  0  0  0  0  0  0  0  0  0  0  0
   -1.4558   -7.9263  -15.2503 H   0  0  0  0  0  0  0  0  0  0  0  0
   -1.8139   -9.6674  -15.2452 H   0  0  0  0  0  0  0  0  0  0  0  0
   -2.8840   -8.5955  -18.9455 H   0  0  0  0  0  0  0  0  0  0  0  0
   -3.2393  -10.3209  -19.0767 H   0  0  0  0  0  0  0  0  0  0  0  0
   -3.9090   -8.4511  -15.5140 H   0  0  0  0  0  0  0  0  0  0  0  0
   -3.2777   -7.5018  -16.8626 H   0  0  0  0  0  0  0  0  0  0  0  0
    0.4809   -7.4167  -19.5236 H   0  0  0  0  0  0  0  0  0  0  0  0
    0.9962   -6.0100  -18.5938 H   0  0  0  0  0  0  0  0  0  0  0  0
   -0.5644   -6.7861  -18.2270 H   0  0  0  0  0  0  0  0  0  0  0  0
    4.0386  -10.2154  -14.7249 H   0  0  0  0  0  0  0  0  0  0  0  0
    2.5281  -11.0074  -14.3664 H   0  0  0  0  0  0  0  0  0  0  0  0
  1  2  1  0  0  0  0
  1 10  2  0  0  0  0
  2  3  2  0  0  0  0
  2  9  1  0  0  0  0
  3 11  1  0  0  0  0
  3 12  1  0  0  0  0
  4 10  1  0  0  0  0
  4 11  2  0  0  0  0
  4 13  1  0  0  0  0
  5  7  1  0  0  0  0
  5 12  1  0  0  0  0
  6  8  1  0  0  0  0
  6 12  1  0  0  0  0
  7 14  1  0  0  0  0
  8 14  1  0  0  0  0
  1 15  1  0  0  0  0
  5 16  1  0  0  0  0
  5 17  1  0  0  0  0
  6 18  1  0  0  0  0
  6 19  1  0  0  0  0
  7 20  1  0  0  0  0
  7 21  1  0  0  0  0
  8 22  1  0  0  0  0
  8 23  1  0  0  0  0
  9 24  1  0  0  0  0
  9 25  1  0  0  0  0
  9 26  1  0  0  0  0
 13 27  1  0  0  0  0
 13 28  1  0  0  0  0
M  END
> <HYBRID receptor title>
27_FRAG(A) > 95F(A-200)

> <HYBRID receptor filename>
data/docking/pairs/27_frag.oedu

> <HYBRID Chemgauss4 score>
-12.268250

> <HYBRID receptor title>
27_FRAG(A) > 95F(A-200)

> <HYBRID receptor filename>
data/docking/pairs/27_frag.oedu

> <Dock Type>
Hybrid

$$$$
MOL0009
  -OEChem-08212416293D

 28 29  0     0  0  0  0  0  0999 V2000
    0.9284   -8.2396  -17.5953 C   0  0  0  0  0  0  0  0  0  0  0  0
    2.2632   -7.9683  -17.3746 C   0  0  0  0  0  0  0  0  0  0  0  0
    0.3920   -9.2584  -16.8350 C   0  0  0  0  0  0  0  0  0  0  0  0
    2.3876   -9.6059  -15.8024 C   0  0  0  0  0  0  0  0  0  0  0  0
   -1.4375   -9.9940  -18.3411 C   0  0  0  0  0  0  0  0  0  0  0  0
   -2.0025   -9.0874  -16.1282 C   0  0  0  0  0  0  0  0  0  0  0  0
   -2.2370   -8.8452  -18.9561 C   0  0  0  0  0  0  0  0  0  0  0  0
   -2.7681   -7.9654  -16.8208 C   0  0  0  0  0  0  0  0  0  0  0  0
    2.9313   -6.8830  -18.1500 C   0  0  0  0  0  0  0  0  0  0  0  0
    3.0256   -8.6342  -16.4825 N   0  0  0  0  0  0  0  0  0  0  0  0
    1.0953   -9.9655  -15.9260 N   0  0  0  0  0  0  0  0  0  0  0  0
   -0.9502   -9.5623  -17.0276 N   0  0  0  0  0  0  0  0  0  0  0  0
    3.1548  -10.3243  -14.8597 N   0  0  0  0  0  0  0  0  0  0  0  0
   -3.2823   -8.4213  -18.0760 O   0  0  0  0  0  0  0  0  0  0  0  0
    0.3430   -7.6858  -18.3198 H   0  0  0  0  0  0  0  0  0  0  0  0
   -2.0869  -10.8607  -18.2164 H   0  0  0  0  0  0  0  0  0  0  0  0
   -0.6103  -10.2547  -18.9990 H   0  0  0  0  0  0  0  0  0  0  0  0
   -1.5813   -8.7185  -15.1911 H   0  0  0  0  0  0  0  0  0  0  0  0
   -2.6863   -9.9116  -15.9090 H   0  0  0  0  0  0  0  0  0  0  0  0
   -1.5908   -7.9929  -19.1981 H   0  0  0  0  0  0  0  0  0  0  0  0
   -2.7035   -9.1783  -19.8887 H   0  0  0  0  0  0  0  0  0  0  0  0
   -3.6174   -7.6617  -16.2054 H   0  0  0  0  0  0  0  0  0  0  0  0
   -2.1380   -7.0855  -16.9784 H   0  0  0  0  0  0  0  0  0  0  0  0
    2.8528   -5.9176  -17.6333 H   0  0  0  0  0  0  0  0  0  0  0  0
    2.4666   -6.7547  -19.1364 H   0  0  0  0  0  0  0  0  0  0  0  0
    3.9936   -7.1152  -18.2935 H   0  0  0  0  0  0  0  0  0  0  0  0
    4.1301  -10.1253  -14.7745 H   0  0  0  0  0  0  0  0  0  0  0  0
    2.7344  -11.0881  -14.3719 H   0  0  0  0  0  0  0  0  0  0  0  0
  1  2  1  0  0  0  0
  1  3  2  0  0  0  0
  2  9  1  0  0  0  0
  2 10  2  0  0  0  0
  3 11  1  0  0  0  0
  3 12  1  0  0  0  0
  4 10  1  0  0  0  0
  4 11  2  0  0  0  0
  4 13  1  0  0  0  0
  5  7  1  0  0  0  0
  5 12  1  0  0  0  0
  6  8  1  0  0  0  0
  6 12  1  0  0  0  0
  7 14  1  0  0  0  0
  8 14  1  0  0  0  0
  1 15  1  0  0  0  0
  5 16  1  0  0  0  0
  5 17  1  0  0  0  0
  6 18  1  0  0  0  0
  6 19  1  0  0  0  0
  7 20  1  0  0  0  0
  7 21  1  0  0  0  0
  8 22  1  0  0  0  0
  8 23  1  0  0  0  0
  9 24  1  0  0  0  0
  9 25  1  0  0  0  0
  9 26  1  0  0  0  0
 13 27  1  0  0  0  0
 13 28  1  0  0  0  0
M  END
> <HYBRID receptor title>
27_FRAG(A) > 95F(A-200)

> <HYBRID receptor filename>
data/docking/pairs/27_frag.oedu

> <HYBRID Chemgauss4 score>
-12.236186

> <HYBRID receptor title>
27_FRAG(A) > 95F(A-200)

> <HYBRID receptor filename>
data/docking/pairs/27_frag.oedu

> <Dock Type>
Hybrid

$$$$
MOL0065
  -OEChem-08212416293D

 30 31  0     0  0  0  0  0  0999 V2000
    0.4463   -7.9018  -17.5001 C   0  0  0  0  0  0  0  0  0  0  0  0
    1.8158   -7.7368  -17.5369 C   0  0  0  0  0  0  0  0  0  0  0  0
   -0.0161   -8.8667  -16.6290 C   0  0  0  0  0  0  0  0  0  0  0  0
    2.1040   -9.3639  -15.9753 C   0  0  0  0  0  0  0  0  0  0  0  0
   -3.2953   -9.3055  -15.8526 C   0  0  0  0  0  0  0  0  0  0  0  0
   -2.3743   -8.1220  -16.1666 C   0  0  0  0  0  0  0  0  0  0  0  0
   -2.0447  -10.1854  -15.9410 C   0  0  0  0  0  0  0  0  0  0  0  0
    2.4322   -6.7200  -18.4403 C   0  0  0  0  0  0  0  0  0  0  0  0
   -1.3350   -7.9453  -19.2635 C   0  0  0  0  0  0  0  0  0  0  0  0
   -0.4649   -7.0855  -18.3487 C   0  0  0  0  0  0  0  0  0  0  0  0
    2.6774   -8.4533  -16.7853 N   0  0  0  0  0  0  0  0  0  0  0  0
    0.7875   -9.6193  -15.8488 N   0  0  0  0  0  0  0  0  0  0  0  0
   -1.3885   -9.0767  -16.5451 N   0  0  0  0  0  0  0  0  0  0  0  0
    2.9760  -10.1332  -15.1746 N   0  0  0  0  0  0  0  0  0  0  0  0
   -3.7827   -9.2768  -14.8744 H   0  0  0  0  0  0  0  0  0  0  0  0
   -4.0431   -9.5094  -16.6267 H   0  0  0  0  0  0  0  0  0  0  0  0
   -2.6904   -7.4763  -16.9889 H   0  0  0  0  0  0  0  0  0  0  0  0
   -2.0787   -7.5268  -15.2969 H   0  0  0  0  0  0  0  0  0  0  0  0
   -1.6095  -10.4635  -14.9760 H   0  0  0  0  0  0  0  0  0  0  0  0
   -2.1187  -11.0552  -16.5976 H   0  0  0  0  0  0  0  0  0  0  0  0
    2.5318   -5.7501  -17.9372 H   0  0  0  0  0  0  0  0  0  0  0  0
    1.8141   -6.5554  -19.3320 H   0  0  0  0  0  0  0  0  0  0  0  0
    3.4271   -7.0504  -18.7613 H   0  0  0  0  0  0  0  0  0  0  0  0
   -1.9252   -8.6629  -18.6832 H   0  0  0  0  0  0  0  0  0  0  0  0
   -0.7199   -8.5110  -19.9712 H   0  0  0  0  0  0  0  0  0  0  0  0
   -2.0276   -7.3228  -19.8384 H   0  0  0  0  0  0  0  0  0  0  0  0
    0.1127   -6.3778  -18.9658 H   0  0  0  0  0  0  0  0  0  0  0  0
   -1.1172   -6.4562  -17.7203 H   0  0  0  0  0  0  0  0  0  0  0  0
    3.9625  -10.0130  -15.2771 H   0  0  0  0  0  0  0  0  0  0  0  0
    2.5963  -10.8560  -14.5989 H   0  0  0  0  0  0  0  0  0  0  0  0
  1  2  1  0  0  0  0
  1  3  2  0  0  0  0
  1 10  1  0  0  0  0
  2  8  1  0  0  0  0
  2 11  2  0  0  0  0
  3 12  1  0  0  0  0
  3 13  1  0  0  0  0
  4 11  1  0  0  0  0
  4 12  2  0  0  0  0
  4 14  1  0  0  0  0
  5  6  1  0  0  0  0
  5  7  1  0  0  0  0
  6 13  1  0  0  0  0
  7 13  1  0  0  0  0
  9 10  1  0  0  0  0
  5 15  1  0  0  0  0
  5 16  1  0  0  0  0
  6 17  1  0  0  0  0
  6 18  1  0  0  0  0
  7 19  1  0  0  0  0
  7 20  1  0  0  0  0
  8 21  1  0  0  0  0
  8 22  1  0  0  0  0
  8 23  1  0  0  0  0
  9 24  1  0  0  0  0
  9 25  1  0  0  0  0
  9 26  1  0  0  0  0
 10 27  1  0  0  0  0
 10 28  1  0  0  0  0
 14 29  1  0  0  0  0
 14 30  1  0  0  0  0
M  END
> <HYBRID receptor title>
27_FRAG(A) > 95F(A-200)

> <HYBRID receptor filename>
data/docking/pairs/27_frag.oedu

> <HYBRID Chemgauss4 score>
-12.208827

> <HYBRID receptor title>
27_FRAG(A) > 95F(A-200)

> <HYBRID receptor filename>
data/docking/pairs/27_frag.oedu

> <Dock Type>
Hybrid

$$$$
MOL0044
  -OEChem-08212416293D

 25 26  0     0  0  0  0  0  0999 V2000
    2.3182   -7.5843  -18.0535 C   0  0  0  0  0  0  0  0  0  0  0  0
    0.9526   -7.6942  -18.2180 C   0  0  0  0  0  0  0  0  0  0  0  0
    0.3175   -8.5770  -17.3688 C   0  0  0  0  0  0  0  0  0  0  0  0
    2.2877   -9.1070  -16.3654 C   0  0  0  0  0  0  0  0  0  0  0  0
   -1.9377   -8.4403  -16.3430 C   0  0  0  0  0  0  0  0  0  0  0  0
   -1.6744   -9.5802  -18.5039 C   0  0  0  0  0  0  0  0  0  0  0  0
   -2.4404   -9.7642  -15.7672 C   0  0  0  0  0  0  0  0  0  0  0  0
   -2.1719  -10.8639  -17.8489 C   0  0  0  0  0  0  0  0  0  0  0  0
    3.0204   -8.2783  -17.1337 N   0  0  0  0  0  0  0  0  0  0  0  0
    0.9564   -9.3027  -16.4275 N   0  0  0  0  0  0  0  0  0  0  0  0
   -1.0584   -8.7380  -17.4777 N   0  0  0  0  0  0  0  0  0  0  0  0
    2.9892   -9.8528  -15.3933 N   0  0  0  0  0  0  0  0  0  0  0  0
   -3.0707  -10.5552  -16.7790 O   0  0  0  0  0  0  0  0  0  0  0  0
    0.1469   -6.7680  -19.4173 Cl  0  0  0  0  0  0  0  0  0  0  0  0
    2.9153   -6.9180  -18.6685 H   0  0  0  0  0  0  0  0  0  0  0  0
   -2.7864   -7.8514  -16.6910 H   0  0  0  0  0  0  0  0  0  0  0  0
   -1.4063   -7.8863  -15.5712 H   0  0  0  0  0  0  0  0  0  0  0  0
   -0.9598   -9.8249  -19.2920 H   0  0  0  0  0  0  0  0  0  0  0  0
   -2.5202   -9.0470  -18.9457 H   0  0  0  0  0  0  0  0  0  0  0  0
   -1.6252  -10.3355  -15.3073 H   0  0  0  0  0  0  0  0  0  0  0  0
   -3.1842   -9.5687  -14.9880 H   0  0  0  0  0  0  0  0  0  0  0  0
   -2.7192  -11.4641  -18.5787 H   0  0  0  0  0  0  0  0  0  0  0  0
   -1.3439  -11.4704  -17.4711 H   0  0  0  0  0  0  0  0  0  0  0  0
    3.9846   -9.7794  -15.3500 H   0  0  0  0  0  0  0  0  0  0  0  0
    2.4913  -10.5180  -14.8386 H   0  0  0  0  0  0  0  0  0  0  0  0
  1  2  1  0  0  0  0
  1  9  2  0  0  0  0
  2  3  2  0  0  0  0
  2 14  1  0  0  0  0
  3 10  1  0  0  0  0
  3 11  1  0  0  0  0
  4  9  1  0  0  0  0
  4 10  2  0  0  0  0
  4 12  1  0  0  0  0
  5  7  1  0  0  0  0
  5 11  1  0  0  0  0
  6  8  1  0  0  0  0
  6 11  1  0  0  0  0
  7 13  1  0  0  0  0
  8 13  1  0  0  0  0
  1 15  1  0  0  0  0
  5 16  1  0  0  0  0
  5 17  1  0  0  0  0
  6 18  1  0  0  0  0
  6 19  1  0  0  0  0
  7 20  1  0  0  0  0
  7 21  1  0  0  0  0
  8 22  1  0  0  0  0
  8 23  1  0  0  0  0
 12 24  1  0  0  0  0
 12 25  1  0  0  0  0
M  END
> <HYBRID receptor title>
27_FRAG(A) > 95F(A-200)

> <HYBRID receptor filename>
data/docking/pairs/27_frag.oedu

> <HYBRID Chemgauss4 score>
-12.163925

> <HYBRID receptor title>
27_FRAG(A) > 95F(A-200)

> <HYBRID receptor filename>
data/docking/pairs/27_frag.oedu

> <Dock Type>
Hybrid

$$$$
MOL0042
  -OEChem-08212416293D

 38 39  0     0  0  0  0  0  0999 V2000
    0.6659   -7.7388  -17.6447 C   0  0  0  0  0  0  0  0  0  0  0  0
    2.0364   -7.6393  -17.5190 C   0  0  0  0  0  0  0  0  0  0  0  0
    0.0692   -8.7404  -16.9068 C   0  0  0  0  0  0  0  0  0  0  0  0
    2.0803   -9.3878  -16.0665 C   0  0  0  0  0  0  0  0  0  0  0  0
   -2.2033   -7.7925  -16.6001 C   0  0  0  0  0  0  0  0  0  0  0  0
   -1.9607  -10.1977  -17.0409 C   0  0  0  0  0  0  0  0  0  0  0  0
   -2.8548   -8.1577  -15.2663 C   0  0  0  0  0  0  0  0  0  0  0  0
   -2.6065  -10.4762  -15.6881 C   0  0  0  0  0  0  0  0  0  0  0  0
    2.7917   -6.5912  -18.2681 C   0  0  0  0  0  0  0  0  0  0  0  0
   -1.6255   -7.4506  -21.8120 C   0  0  0  0  0  0  0  0  0  0  0  0
   -0.1100   -6.8189  -18.5216 C   0  0  0  0  0  0  0  0  0  0  0  0
   -1.2429   -6.6657  -20.5752 C   0  0  0  0  0  0  0  0  0  0  0  0
    2.7779   -8.4502  -16.7359 N   0  0  0  0  0  0  0  0  0  0  0  0
    0.7485   -9.5865  -16.1045 N   0  0  0  0  0  0  0  0  0  0  0  0
   -1.3100   -8.8878  -16.9895 N   0  0  0  0  0  0  0  0  0  0  0  0
    2.8244  -10.2554  -15.2377 N   0  0  0  0  0  0  0  0  0  0  0  0
   -3.5154   -9.4240  -15.3498 O   0  0  0  0  0  0  0  0  0  0  0  0
   -0.4979   -7.5066  -19.7055 O   0  0  0  0  0  0  0  0  0  0  0  0
   -2.9761   -7.6719  -17.3594 H   0  0  0  0  0  0  0  0  0  0  0  0
   -1.6538   -6.8588  -16.4931 H   0  0  0  0  0  0  0  0  0  0  0  0
   -1.2406  -10.9851  -17.2715 H   0  0  0  0  0  0  0  0  0  0  0  0
   -2.7320  -10.1852  -17.8154 H   0  0  0  0  0  0  0  0  0  0  0  0
   -2.1184   -8.1791  -14.4540 H   0  0  0  0  0  0  0  0  0  0  0  0
   -3.6083   -7.4073  -15.0062 H   0  0  0  0  0  0  0  0  0  0  0  0
   -3.1780  -11.4055  -15.7348 H   0  0  0  0  0  0  0  0  0  0  0  0
   -1.8573  -10.5840  -14.8987 H   0  0  0  0  0  0  0  0  0  0  0  0
    2.8737   -5.6665  -17.6833 H   0  0  0  0  0  0  0  0  0  0  0  0
    2.2850   -6.3319  -19.2064 H   0  0  0  0  0  0  0  0  0  0  0  0
    3.8019   -6.9461  -18.5035 H   0  0  0  0  0  0  0  0  0  0  0  0
   -0.7357   -7.8010  -22.3427 H   0  0  0  0  0  0  0  0  0  0  0  0
   -2.2416   -8.3153  -21.5449 H   0  0  0  0  0  0  0  0  0  0  0  0
   -2.2216   -6.8328  -22.4912 H   0  0  0  0  0  0  0  0  0  0  0  0
   -1.0149   -6.4520  -18.0169 H   0  0  0  0  0  0  0  0  0  0  0  0
    0.4854   -5.9390  -18.8062 H   0  0  0  0  0  0  0  0  0  0  0  0
   -2.1369   -6.3182  -20.0492 H   0  0  0  0  0  0  0  0  0  0  0  0
   -0.6265   -5.8021  -20.8434 H   0  0  0  0  0  0  0  0  0  0  0  0
    3.8203  -10.1769  -15.2223 H   0  0  0  0  0  0  0  0  0  0  0  0
    2.3531  -10.9985  -14.7647 H   0  0  0  0  0  0  0  0  0  0  0  0
  1  2  1  0  0  0  0
  1  3  2  0  0  0  0
  1 11  1  0  0  0  0
  2  9  1  0  0  0  0
  2 13  2  0  0  0  0
  3 14  1  0  0  0  0
  3 15  1  0  0  0  0
  4 13  1  0  0  0  0
  4 14  2  0  0  0  0
  4 16  1  0  0  0  0
  5  7  1  0  0  0  0
  5 15  1  0  0  0  0
  6  8  1  0  0  0  0
  6 15  1  0  0  0  0
  7 17  1  0  0  0  0
  8 17  1  0  0  0  0
 10 12  1  0  0  0  0
 11 18  1  0  0  0  0
 12 18  1  0  0  0  0
  5 19  1  0  0  0  0
  5 20  1  0  0  0  0
  6 21  1  0  0  0  0
  6 22  1  0  0  0  0
  7 23  1  0  0  0  0
  7 24  1  0  0  0  0
  8 25  1  0  0  0  0
  8 26  1  0  0  0  0
  9 27  1  0  0  0  0
  9 28  1  0  0  0  0
  9 29  1  0  0  0  0
 10 30  1  0  0  0  0
 10 31  1  0  0  0  0
 10 32  1  0  0  0  0
 11 33  1  0  0  0  0
 11 34  1  0  0  0  0
 12 35  1  0  0  0  0
 12 36  1  0  0  0  0
 16 37  1  0  0  0  0
 16 38  1  0  0  0  0
M  END
> <HYBRID receptor title>
27_FRAG(A) > 95F(A-200)

> <HYBRID receptor filename>
data/docking/pairs/27_frag.oedu

> <HYBRID Chemgauss4 score>
-12.089251

> <HYBRID receptor title>
27_FRAG(A) > 95F(A-200)

> <HYBRID receptor filename>
data/docking/pairs/27_frag.oedu

> <Dock Type>
Hybrid

$$$$
MOL0048
  -OEChem-08212416293D

 31 32  0     0  0  0  0  0  0999 V2000
    0.4971   -8.1968  -16.6400 C   0  0  0  0  0  0  0  0  0  0  0  0
    1.8577   -8.2731  -16.8569 C   0  0  0  0  0  0  0  0  0  0  0  0
    0.0293   -8.8763  -15.5341 C   0  0  0  0  0  0  0  0  0  0  0  0
    2.1286   -9.5786  -15.0154 C   0  0  0  0  0  0  0  0  0  0  0  0
   -1.9928   -7.5290  -15.0440 C   0  0  0  0  0  0  0  0  0  0  0  0
   -2.1992   -9.8662  -15.8633 C   0  0  0  0  0  0  0  0  0  0  0  0
   -3.3246   -7.7350  -14.3312 C   0  0  0  0  0  0  0  0  0  0  0  0
   -3.5200   -9.9412  -15.1059 C   0  0  0  0  0  0  0  0  0  0  0  0
    1.6766   -6.3151  -18.4119 C   0  0  0  0  0  0  0  0  0  0  0  0
    2.4564   -7.5700  -18.0286 C   0  0  0  0  0  0  0  0  0  0  0  0
    2.7060   -8.9577  -16.0618 N   0  0  0  0  0  0  0  0  0  0  0  0
    0.8197   -9.5804  -14.6972 N   0  0  0  0  0  0  0  0  0  0  0  0
   -1.3446   -8.8234  -15.2793 N   0  0  0  0  0  0  0  0  0  0  0  0
    2.9864  -10.3052  -14.1612 N   0  0  0  0  0  0  0  0  0  0  0  0
   -4.1413   -8.6588  -15.0464 O   0  0  0  0  0  0  0  0  0  0  0  0
   -0.1578   -7.6379  -17.2980 H   0  0  0  0  0  0  0  0  0  0  0  0
   -2.1690   -7.0372  -16.0093 H   0  0  0  0  0  0  0  0  0  0  0  0
   -1.3515   -6.8774  -14.4389 H   0  0  0  0  0  0  0  0  0  0  0  0
   -1.7008  -10.8421  -15.8290 H   0  0  0  0  0  0  0  0  0  0  0  0
   -2.3957   -9.6175  -16.9141 H   0  0  0  0  0  0  0  0  0  0  0  0
   -3.1784   -8.0887  -13.3035 H   0  0  0  0  0  0  0  0  0  0  0  0
   -3.8654   -6.7847  -14.2771 H   0  0  0  0  0  0  0  0  0  0  0  0
   -4.2051  -10.6196  -15.6245 H   0  0  0  0  0  0  0  0  0  0  0  0
   -3.3790  -10.3314  -14.0907 H   0  0  0  0  0  0  0  0  0  0  0  0
    1.6108   -5.6197  -17.5681 H   0  0  0  0  0  0  0  0  0  0  0  0
    0.6563   -6.5658  -18.7209 H   0  0  0  0  0  0  0  0  0  0  0  0
    2.1644   -5.7956  -19.2425 H   0  0  0  0  0  0  0  0  0  0  0  0
    2.5027   -8.2447  -18.8979 H   0  0  0  0  0  0  0  0  0  0  0  0
    3.5021   -7.2948  -17.8168 H   0  0  0  0  0  0  0  0  0  0  0  0
    3.9563  -10.3737  -14.3908 H   0  0  0  0  0  0  0  0  0  0  0  0
    2.5924  -10.8240  -13.4038 H   0  0  0  0  0  0  0  0  0  0  0  0
  1  2  1  0  0  0  0
  1  3  2  0  0  0  0
  2 10  1  0  0  0  0
  2 11  2  0  0  0  0
  3 12  1  0  0  0  0
  3 13  1  0  0  0  0
  4 11  1  0  0  0  0
  4 12  2  0  0  0  0
  4 14  1  0  0  0  0
  5  7  1  0  0  0  0
  5 13  1  0  0  0  0
  6  8  1  0  0  0  0
  6 13  1  0  0  0  0
  7 15  1  0  0  0  0
  8 15  1  0  0  0  0
  9 10  1  0  0  0  0
  1 16  1  0  0  0  0
  5 17  1  0  0  0  0
  5 18  1  0  0  0  0
  6 19  1  0  0  0  0
  6 20  1  0  0  0  0
  7 21  1  0  0  0  0
  7 22  1  0  0  0  0
  8 23  1  0  0  0  0
  8 24  1  0  0  0  0
  9 25  1  0  0  0  0
  9 26  1  0  0  0  0
  9 27  1  0  0  0  0
 10 28  1  0  0  0  0
 10 29  1  0  0  0  0
 14 30  1  0  0  0  0
 14 31  1  0  0  0  0
M  END
> <HYBRID receptor title>
27_FRAG(A) > 95F(A-200)

> <HYBRID receptor filename>
data/docking/pairs/27_frag.oedu

> <HYBRID Chemgauss4 score>
-12.049446

> <HYBRID receptor title>
27_FRAG(A) > 95F(A-200)

> <HYBRID receptor filename>
data/docking/pairs/27_frag.oedu

> <Dock Type>
Hybrid

$$$$
MOL0067
  -OEChem-08212416293D

 37 38  0     0  0  0  0  0  0999 V2000
    0.9841   -7.7986  -17.9418 C   0  0  0  0  0  0  0  0  0  0  0  0
    2.3515   -7.7604  -17.7610 C   0  0  0  0  0  0  0  0  0  0  0  0
    0.2941   -8.6503  -17.1038 C   0  0  0  0  0  0  0  0  0  0  0  0
    2.2223   -9.2857  -16.0800 C   0  0  0  0  0  0  0  0  0  0  0  0
    0.3230   -6.9872  -18.9553 C   0  0  0  0  0  0  0  0  0  0  0  0
   -1.6815   -9.7216  -18.1496 C   0  0  0  0  0  0  0  0  0  0  0  0
   -1.9261   -8.3633  -16.0829 C   0  0  0  0  0  0  0  0  0  0  0  0
   -3.1123   -9.3257  -18.4957 C   0  0  0  0  0  0  0  0  0  0  0  0
   -3.3437   -8.0443  -16.5438 C   0  0  0  0  0  0  0  0  0  0  0  0
    3.2070   -6.8757  -18.6076 C   0  0  0  0  0  0  0  0  0  0  0  0
   -1.4414   -4.3754  -19.1878 C   0  0  0  0  0  0  0  0  0  0  0  0
   -0.0604   -4.7504  -19.6820 C   0  0  0  0  0  0  0  0  0  0  0  0
    3.0059   -8.4933  -16.8362 N   0  0  0  0  0  0  0  0  0  0  0  0
    0.8834   -9.4118  -16.1584 N   0  0  0  0  0  0  0  0  0  0  0  0
   -1.0952   -8.7351  -17.2362 N   0  0  0  0  0  0  0  0  0  0  0  0
    2.8736  -10.0679  -15.1017 N   0  0  0  0  0  0  0  0  0  0  0  0
   -0.3492   -7.4458  -19.8865 O   0  0  0  0  0  0  0  0  0  0  0  0
   -3.8790   -9.1204  -17.3116 O   0  0  0  0  0  0  0  0  0  0  0  0
    0.5399   -5.6534  -18.7476 O   0  0  0  0  0  0  0  0  0  0  0  0
   -1.6841  -10.7040  -17.6601 H   0  0  0  0  0  0  0  0  0  0  0  0
   -1.0908   -9.7984  -19.0700 H   0  0  0  0  0  0  0  0  0  0  0  0
   -1.5049   -7.4943  -15.5639 H   0  0  0  0  0  0  0  0  0  0  0  0
   -1.9529   -9.2044  -15.3782 H   0  0  0  0  0  0  0  0  0  0  0  0
   -3.1390   -8.4212  -19.1154 H   0  0  0  0  0  0  0  0  0  0  0  0
   -3.5899  -10.1284  -19.0668 H   0  0  0  0  0  0  0  0  0  0  0  0
   -3.9918   -7.9017  -15.6731 H   0  0  0  0  0  0  0  0  0  0  0  0
   -3.3761   -7.1187  -17.1312 H   0  0  0  0  0  0  0  0  0  0  0  0
    3.3232   -5.8838  -18.1534 H   0  0  0  0  0  0  0  0  0  0  0  0
    2.7606   -6.7234  -19.5983 H   0  0  0  0  0  0  0  0  0  0  0  0
    4.2010   -7.3194  -18.7367 H   0  0  0  0  0  0  0  0  0  0  0  0
   -2.0780   -5.2603  -19.0991 H   0  0  0  0  0  0  0  0  0  0  0  0
   -1.3814   -3.8835  -18.2116 H   0  0  0  0  0  0  0  0  0  0  0  0
   -1.9163   -3.6658  -19.8729 H   0  0  0  0  0  0  0  0  0  0  0  0
    0.5710   -3.8613  -19.7684 H   0  0  0  0  0  0  0  0  0  0  0  0
   -0.1218   -5.2426  -20.6576 H   0  0  0  0  0  0  0  0  0  0  0  0
    3.8708  -10.0446  -15.0460 H   0  0  0  0  0  0  0  0  0  0  0  0
    2.3362  -10.7087  -14.5551 H   0  0  0  0  0  0  0  0  0  0  0  0
  1  2  1  0  0  0  0
  1  3  2  0  0  0  0
  1  5  1  0  0  0  0
  2 10  1  0  0  0  0
  2 13  2  0  0  0  0
  3 14  1  0  0  0  0
  3 15  1  0  0  0  0
  4 13  1  0  0  0  0
  4 14  2  0  0  0  0
  4 16  1  0  0  0  0
  5 17  2  0  0  0  0
  5 19  1  0  0  0  0
  6  8  1  0  0  0  0
  6 15  1  0  0  0  0
  7  9  1  0  0  0  0
  7 15  1  0  0  0  0
  8 18  1  0  0  0  0
  9 18  1  0  0  0  0
 11 12  1  0  0  0  0
 12 19  1  0  0  0  0
  6 20  1  0  0  0  0
  6 21  1  0  0  0  0
  7 22  1  0  0  0  0
  7 23  1  0  0  0  0
  8 24  1  0  0  0  0
  8 25  1  0  0  0  0
  9 26  1  0  0  0  0
  9 27  1  0  0  0  0
 10 28  1  0  0  0  0
 10 29  1  0  0  0  0
 10 30  1  0  0  0  0
 11 31  1  0  0  0  0
 11 32  1  0  0  0  0
 11 33  1  0  0  0  0
 12 34  1  0  0  0  0
 12 35  1  0  0  0  0
 16 36  1  0  0  0  0
 16 37  1  0  0  0  0
M  END
> <HYBRID receptor title>
27_FRAG(A) > 95F(A-200)

> <HYBRID receptor filename>
data/docking/pairs/27_frag.oedu

> <HYBRID Chemgauss4 score>
-11.955793

> <HYBRID receptor title>
27_FRAG(A) > 95F(A-200)

> <HYBRID receptor filename>
data/docking/pairs/27_frag.oedu

> <Dock Type>
Hybrid

$$$$
MOL0006
  -OEChem-08212416293D

 40 41  0     0  0  0  0  0  0999 V2000
    0.9388   -7.8546  -17.8019 C   0  0  0  0  0  0  0  0  0  0  0  0
    2.3101   -7.7676  -17.6751 C   0  0  0  0  0  0  0  0  0  0  0  0
    0.3111   -8.7154  -16.9252 C   0  0  0  0  0  0  0  0  0  0  0  0
    2.2977   -9.2690  -15.9679 C   0  0  0  0  0  0  0  0  0  0  0  0
   -1.6754  -10.1527  -17.2890 C   0  0  0  0  0  0  0  0  0  0  0  0
   -1.9059   -7.9291  -16.2032 C   0  0  0  0  0  0  0  0  0  0  0  0
   -3.1024   -9.9757  -17.7954 C   0  0  0  0  0  0  0  0  0  0  0  0
   -3.3204   -7.8770  -16.7691 C   0  0  0  0  0  0  0  0  0  0  0  0
    3.0977   -6.8662  -18.5680 C   0  0  0  0  0  0  0  0  0  0  0  0
    0.0274   -4.8317  -20.8135 C   0  0  0  0  0  0  0  0  0  0  0  0
    0.1939   -7.0654  -18.8213 C   0  0  0  0  0  0  0  0  0  0  0  0
   -0.7074   -4.7857  -19.4833 C   0  0  0  0  0  0  0  0  0  0  0  0
    0.0224   -5.5944  -18.4112 C   0  0  0  0  0  0  0  0  0  0  0  0
    3.0242   -8.4630  -16.7657 N   0  0  0  0  0  0  0  0  0  0  0  0
    0.9619   -9.4412  -15.9922 N   0  0  0  0  0  0  0  0  0  0  0  0
   -1.0791   -8.8436  -17.0026 N   0  0  0  0  0  0  0  0  0  0  0  0
    3.0126  -10.0134  -15.0045 N   0  0  0  0  0  0  0  0  0  0  0  0
   -3.8666   -9.1894  -16.8844 O   0  0  0  0  0  0  0  0  0  0  0  0
   -1.6876  -10.7488  -16.3675 H   0  0  0  0  0  0  0  0  0  0  0  0
   -1.0858  -10.6926  -18.0393 H   0  0  0  0  0  0  0  0  0  0  0  0
   -1.4759   -6.9206  -16.1972 H   0  0  0  0  0  0  0  0  0  0  0  0
   -1.9408   -8.2939  -15.1686 H   0  0  0  0  0  0  0  0  0  0  0  0
   -3.1203   -9.5127  -18.7894 H   0  0  0  0  0  0  0  0  0  0  0  0
   -3.5881  -10.9532  -17.8803 H   0  0  0  0  0  0  0  0  0  0  0  0
   -3.9668   -7.3052  -16.0955 H   0  0  0  0  0  0  0  0  0  0  0  0
   -3.3438   -7.3793  -17.7461 H   0  0  0  0  0  0  0  0  0  0  0  0
    3.1965   -5.8638  -18.1331 H   0  0  0  0  0  0  0  0  0  0  0  0
    2.6064   -6.7450  -19.5418 H   0  0  0  0  0  0  0  0  0  0  0  0
    4.1012   -7.2760  -18.7320 H   0  0  0  0  0  0  0  0  0  0  0  0
    0.1398   -5.8618  -21.1643 H   0  0  0  0  0  0  0  0  0  0  0  0
   -0.5123   -4.2651  -21.5790 H   0  0  0  0  0  0  0  0  0  0  0  0
    1.0265   -4.3965  -20.7094 H   0  0  0  0  0  0  0  0  0  0  0  0
    0.7112   -7.1149  -19.7949 H   0  0  0  0  0  0  0  0  0  0  0  0
   -0.7982   -7.5134  -19.0013 H   0  0  0  0  0  0  0  0  0  0  0  0
   -0.8027   -3.7417  -19.1614 H   0  0  0  0  0  0  0  0  0  0  0  0
   -1.7222   -5.1772  -19.6191 H   0  0  0  0  0  0  0  0  0  0  0  0
   -0.5342   -5.5392  -17.4674 H   0  0  0  0  0  0  0  0  0  0  0  0
    1.0077   -5.1486  -18.2223 H   0  0  0  0  0  0  0  0  0  0  0  0
    4.0099   -9.9559  -14.9884 H   0  0  0  0  0  0  0  0  0  0  0  0
    2.5189  -10.6630  -14.4280 H   0  0  0  0  0  0  0  0  0  0  0  0
  1  2  1  0  0  0  0
  1  3  2  0  0  0  0
  1 11  1  0  0  0  0
  2  9  1  0  0  0  0
  2 14  2  0  0  0  0
  3 15  1  0  0  0  0
  3 16  1  0  0  0  0
  4 14  1  0  0  0  0
  4 15  2  0  0  0  0
  4 17  1  0  0  0  0
  5  7  1  0  0  0  0
  5 16  1  0  0  0  0
  6  8  1  0  0  0  0
  6 16  1  0  0  0  0
  7 18  1  0  0  0  0
  8 18  1  0  0  0  0
 10 12  1  0  0  0  0
 11 13  1  0  0  0  0
 12 13  1  0  0  0  0
  5 19  1  0  0  0  0
  5 20  1  0  0  0  0
  6 21  1  0  0  0  0
  6 22  1  0  0  0  0
  7 23  1  0  0  0  0
  7 24  1  0  0  0  0
  8 25  1  0  0  0  0
  8 26  1  0  0  0  0
  9 27  1  0  0  0  0
  9 28  1  0  0  0  0
  9 29  1  0  0  0  0
 10 30  1  0  0  0  0
 10 31  1  0  0  0  0
 10 32  1  0  0  0  0
 11 33  1  0  0  0  0
 11 34  1  0  0  0  0
 12 35  1  0  0  0  0
 12 36  1  0  0  0  0
 13 37  1  0  0  0  0
 13 38  1  0  0  0  0
 17 39  1  0  0  0  0
 17 40  1  0  0  0  0
M  END
> <HYBRID receptor title>
27_FRAG(A) > 95F(A-200)

> <HYBRID receptor filename>
data/docking/pairs/27_frag.oedu

> <HYBRID Chemgauss4 score>
-11.912279

> <HYBRID receptor title>
27_FRAG(A) > 95F(A-200)

> <HYBRID receptor filename>
data/docking/pairs/27_frag.oedu

> <Dock Type>
Hybrid

$$$$
MOL0057
  -OEChem-08212416293D

 34 35  0     0  0  0  0  0  0999 V2000
    2.3148   -7.8257  -17.1026 C   0  0  0  0  0  0  0  0  0  0  0  0
    0.9407   -7.7009  -17.0842 C   0  0  0  0  0  0  0  0  0  0  0  0
    0.2720   -8.5798  -16.2571 C   0  0  0  0  0  0  0  0  0  0  0  0
    2.2298   -9.5354  -15.6065 C   0  0  0  0  0  0  0  0  0  0  0  0
   -1.9358   -9.6604  -16.5768 C   0  0  0  0  0  0  0  0  0  0  0  0
   -1.7243   -7.5993  -15.2045 C   0  0  0  0  0  0  0  0  0  0  0  0
   -3.3586   -9.2170  -16.8978 C   0  0  0  0  0  0  0  0  0  0  0  0
   -3.1592   -7.2716  -15.6011 C   0  0  0  0  0  0  0  0  0  0  0  0
   -0.6271   -8.3583  -19.5913 C   0  0  0  0  0  0  0  0  0  0  0  0
    0.2591   -6.6740  -17.9149 C   0  0  0  0  0  0  0  0  0  0  0  0
    0.1738   -7.0810  -19.3946 C   0  0  0  0  0  0  0  0  0  0  0  0
    2.9945   -8.7352  -16.3737 N   0  0  0  0  0  0  0  0  0  0  0  0
    0.8870   -9.5136  -15.5016 N   0  0  0  0  0  0  0  0  0  0  0  0
   -1.1227   -8.5003  -16.1970 N   0  0  0  0  0  0  0  0  0  0  0  0
    2.9076  -10.4998  -14.8292 N   0  0  0  0  0  0  0  0  0  0  0  0
   -3.9082   -8.4658  -15.8180 O   0  0  0  0  0  0  0  0  0  0  0  0
    2.9332   -7.1819  -17.7202 H   0  0  0  0  0  0  0  0  0  0  0  0
   -1.9561  -10.3713  -15.7407 H   0  0  0  0  0  0  0  0  0  0  0  0
   -1.5059  -10.1679  -17.4484 H   0  0  0  0  0  0  0  0  0  0  0  0
   -1.1461   -6.6716  -15.1204 H   0  0  0  0  0  0  0  0  0  0  0  0
   -1.7213   -8.0959  -14.2257 H   0  0  0  0  0  0  0  0  0  0  0  0
   -3.3948   -8.6223  -17.8186 H   0  0  0  0  0  0  0  0  0  0  0  0
   -3.9939  -10.0955  -17.0498 H   0  0  0  0  0  0  0  0  0  0  0  0
   -3.6471   -6.7143  -14.7949 H   0  0  0  0  0  0  0  0  0  0  0  0
   -3.1940   -6.6446  -16.5002 H   0  0  0  0  0  0  0  0  0  0  0  0
   -1.6395   -8.2353  -19.1935 H   0  0  0  0  0  0  0  0  0  0  0  0
   -0.7080   -8.6109  -20.6532 H   0  0  0  0  0  0  0  0  0  0  0  0
   -0.1574   -9.1997  -19.0723 H   0  0  0  0  0  0  0  0  0  0  0  0
    0.7822   -5.7052  -17.8338 H   0  0  0  0  0  0  0  0  0  0  0  0
   -0.7581   -6.4821  -17.5317 H   0  0  0  0  0  0  0  0  0  0  0  0
    1.1832   -7.2243  -19.7989 H   0  0  0  0  0  0  0  0  0  0  0  0
   -0.2885   -6.2744  -19.9760 H   0  0  0  0  0  0  0  0  0  0  0  0
    3.8990  -10.5850  -14.9174 H   0  0  0  0  0  0  0  0  0  0  0  0
    2.3752  -11.1481  -14.2867 H   0  0  0  0  0  0  0  0  0  0  0  0
  1  2  1  0  0  0  0
  1 12  2  0  0  0  0
  2  3  2  0  0  0  0
  2 10  1  0  0  0  0
  3 13  1  0  0  0  0
  3 14  1  0  0  0  0
  4 12  1  0  0  0  0
  4 13  2  0  0  0  0
  4 15  1  0  0  0  0
  5  7  1  0  0  0  0
  5 14  1  0  0  0  0
  6  8  1  0  0  0  0
  6 14  1  0  0  0  0
  7 16  1  0  0  0  0
  8 16  1  0  0  0  0
  9 11  1  0  0  0  0
 10 11  1  0  0  0  0
  1 17  1  0  0  0  0
  5 18  1  0  0  0  0
  5 19  1  0  0  0  0
  6 20  1  0  0  0  0
  6 21  1  0  0  0  0
  7 22  1  0  0  0  0
  7 23  1  0  0  0  0
  8 24  1  0  0  0  0
  8 25  1  0  0  0  0
  9 26  1  0  0  0  0
  9 27  1  0  0  0  0
  9 28  1  0  0  0  0
 10 29  1  0  0  0  0
 10 30  1  0  0  0  0
 11 31  1  0  0  0  0
 11 32  1  0  0  0  0
 15 33  1  0  0  0  0
 15 34  1  0  0  0  0
M  END
> <HYBRID receptor title>
27_FRAG(A) > 95F(A-200)

> <HYBRID receptor filename>
data/docking/pairs/27_frag.oedu

> <HYBRID Chemgauss4 score>
-11.825530

> <HYBRID receptor title>
27_FRAG(A) > 95F(A-200)

> <HYBRID receptor filename>
data/docking/pairs/27_frag.oedu

> <Dock Type>
Hybrid

$$$$
MOL0056
  -OEChem-08212416293D

 29 30  0     0  0  0  0  0  0999 V2000
    2.4834   -9.2853  -16.4299 C   0  0  0  0  0  0  0  0  0  0  0  0
    0.8846   -7.6600  -17.8485 C   0  0  0  0  0  0  0  0  0  0  0  0
    2.2520   -7.4823  -17.7953 C   0  0  0  0  0  0  0  0  0  0  0  0
    0.3921   -8.7269  -17.1255 C   0  0  0  0  0  0  0  0  0  0  0  0
   -1.5685   -9.8311  -18.1652 C   0  0  0  0  0  0  0  0  0  0  0  0
   -1.7132   -8.9032  -15.8642 C   0  0  0  0  0  0  0  0  0  0  0  0
   -3.0632   -9.5600  -18.2935 C   0  0  0  0  0  0  0  0  0  0  0  0
   -3.2000   -8.6853  -16.1206 C   0  0  0  0  0  0  0  0  0  0  0  0
    0.0063   -6.7531  -18.6379 C   0  0  0  0  0  0  0  0  0  0  0  0
    2.8995   -6.3601  -18.5381 C   0  0  0  0  0  0  0  0  0  0  0  0
    3.0844   -8.2790  -17.0933 N   0  0  0  0  0  0  0  0  0  0  0  0
    1.1657   -9.5634  -16.4025 N   0  0  0  0  0  0  0  0  0  0  0  0
   -0.9868   -8.9580  -17.1402 N   0  0  0  0  0  0  0  0  0  0  0  0
   -3.7053   -9.6653  -17.0251 O   0  0  0  0  0  0  0  0  0  0  0  0
    3.1282   -9.9409  -15.8576 H   0  0  0  0  0  0  0  0  0  0  0  0
   -1.4122  -10.8776  -17.8734 H   0  0  0  0  0  0  0  0  0  0  0  0
   -1.0833   -9.6690  -19.1349 H   0  0  0  0  0  0  0  0  0  0  0  0
   -1.3277   -8.0951  -15.2315 H   0  0  0  0  0  0  0  0  0  0  0  0
   -1.5707   -9.8531  -15.3330 H   0  0  0  0  0  0  0  0  0  0  0  0
   -3.2553   -8.5700  -18.7246 H   0  0  0  0  0  0  0  0  0  0  0  0
   -3.5172  -10.3011  -18.9592 H   0  0  0  0  0  0  0  0  0  0  0  0
   -3.7546   -8.7812  -15.1816 H   0  0  0  0  0  0  0  0  0  0  0  0
   -3.3963   -7.6811  -16.5156 H   0  0  0  0  0  0  0  0  0  0  0  0
   -0.1201   -7.1132  -19.6683 H   0  0  0  0  0  0  0  0  0  0  0  0
    0.4322   -5.7424  -18.7066 H   0  0  0  0  0  0  0  0  0  0  0  0
   -0.9859   -6.6790  -18.1738 H   0  0  0  0  0  0  0  0  0  0  0  0
    2.9612   -5.4570  -17.9181 H   0  0  0  0  0  0  0  0  0  0  0  0
    2.3245   -6.0940  -19.4340 H   0  0  0  0  0  0  0  0  0  0  0  0
    3.9133   -6.6427  -18.8450 H   0  0  0  0  0  0  0  0  0  0  0  0
  1 11  2  0  0  0  0
  1 12  1  0  0  0  0
  2  3  2  0  0  0  0
  2  4  1  0  0  0  0
  2  9  1  0  0  0  0
  3 10  1  0  0  0  0
  3 11  1  0  0  0  0
  4 12  2  0  0  0  0
  4 13  1  0  0  0  0
  5  7  1  0  0  0  0
  5 13  1  0  0  0  0
  6  8  1  0  0  0  0
  6 13  1  0  0  0  0
  7 14  1  0  0  0  0
  8 14  1  0  0  0  0
  1 15  1  0  0  0  0
  5 16  1  0  0  0  0
  5 17  1  0  0  0  0
  6 18  1  0  0  0  0
  6 19  1  0  0  0  0
  7 20  1  0  0  0  0
  7 21  1  0  0  0  0
  8 22  1  0  0  0  0
  8 23  1  0  0  0  0
  9 24  1  0  0  0  0
  9 25  1  0  0  0  0
  9 26  1  0  0  0  0
 10 27  1  0  0  0  0
 10 28  1  0  0  0  0
 10 29  1  0  0  0  0
M  END
> <HYBRID receptor title>
27_FRAG(A) > 95F(A-200)

> <HYBRID receptor filename>
data/docking/pairs/27_frag.oedu

> <HYBRID Chemgauss4 score>
-11.743366

> <HYBRID receptor title>
27_FRAG(A) > 95F(A-200)

> <HYBRID receptor filename>
data/docking/pairs/27_frag.oedu

> <Dock Type>
Hybrid

$$$$
MOL0008
  -OEChem-08212416293D

 40 41  0     0  0  0  0  0  0999 V2000
    0.9238   -7.6588  -17.3937 C   0  0  0  0  0  0  0  0  0  0  0  0
    2.3008   -7.5703  -17.4053 C   0  0  0  0  0  0  0  0  0  0  0  0
    0.3976   -8.6912  -16.6447 C   0  0  0  0  0  0  0  0  0  0  0  0
    2.4787   -9.3841  -16.0461 C   0  0  0  0  0  0  0  0  0  0  0  0
   -1.6201  -10.0673  -17.0681 C   0  0  0  0  0  0  0  0  0  0  0  0
   -1.7218   -8.1127  -15.5368 C   0  0  0  0  0  0  0  0  0  0  0  0
   -3.0949   -9.8222  -17.3664 C   0  0  0  0  0  0  0  0  0  0  0  0
   -3.1911   -7.9775  -15.9195 C   0  0  0  0  0  0  0  0  0  0  0  0
    0.0403   -6.9894  -19.6422 C   0  0  0  0  0  0  0  0  0  0  0  0
    3.8803   -7.0510  -19.2994 C   0  0  0  0  0  0  0  0  0  0  0  0
    3.8003   -5.5478  -17.2767 C   0  0  0  0  0  0  0  0  0  0  0  0
    0.0699   -6.6966  -18.1434 C   0  0  0  0  0  0  0  0  0  0  0  0
    2.9840   -6.4916  -18.1797 C   0  0  0  0  0  0  0  0  0  0  0  0
    3.1118   -8.4192  -16.7404 N   0  0  0  0  0  0  0  0  0  0  0  0
    1.1484   -9.5759  -15.9559 N   0  0  0  0  0  0  0  0  0  0  0  0
   -0.9926   -8.8304  -16.5913 N   0  0  0  0  0  0  0  0  0  0  0  0
    3.2966  -10.2918  -15.3386 N   0  0  0  0  0  0  0  0  0  0  0  0
   -3.7495   -9.2511  -16.2361 O   0  0  0  0  0  0  0  0  0  0  0  0
   -1.5290  -10.8366  -16.2906 H   0  0  0  0  0  0  0  0  0  0  0  0
   -1.1202  -10.4330  -17.9728 H   0  0  0  0  0  0  0  0  0  0  0  0
   -1.2919   -7.1172  -15.3750 H   0  0  0  0  0  0  0  0  0  0  0  0
   -1.6401   -8.6786  -14.5999 H   0  0  0  0  0  0  0  0  0  0  0  0
   -3.2242   -9.1693  -18.2381 H   0  0  0  0  0  0  0  0  0  0  0  0
   -3.5889  -10.7726  -17.5925 H   0  0  0  0  0  0  0  0  0  0  0  0
   -3.7561   -7.5664  -15.0766 H   0  0  0  0  0  0  0  0  0  0  0  0
   -3.3241   -7.2943  -16.7670 H   0  0  0  0  0  0  0  0  0  0  0  0
   -0.3068   -8.0101  -19.8360 H   0  0  0  0  0  0  0  0  0  0  0  0
    1.0379   -6.8848  -20.0817 H   0  0  0  0  0  0  0  0  0  0  0  0
   -0.6323   -6.2984  -20.1597 H   0  0  0  0  0  0  0  0  0  0  0  0
    4.6602   -7.6963  -18.8799 H   0  0  0  0  0  0  0  0  0  0  0  0
    3.3020   -7.6465  -20.0143 H   0  0  0  0  0  0  0  0  0  0  0  0
    4.3759   -6.2498  -19.8590 H   0  0  0  0  0  0  0  0  0  0  0  0
    4.5809   -6.0915  -16.7329 H   0  0  0  0  0  0  0  0  0  0  0  0
    4.2881   -4.7713  -17.8769 H   0  0  0  0  0  0  0  0  0  0  0  0
    3.1658   -5.0484  -16.5361 H   0  0  0  0  0  0  0  0  0  0  0  0
    0.4230   -5.6640  -17.9873 H   0  0  0  0  0  0  0  0  0  0  0  0
   -0.9619   -6.7117  -17.7541 H   0  0  0  0  0  0  0  0  0  0  0  0
    2.2296   -5.8566  -18.6810 H   0  0  0  0  0  0  0  0  0  0  0  0
    4.2894  -10.2178  -15.4222 H   0  0  0  0  0  0  0  0  0  0  0  0
    2.8701  -11.0542  -14.8539 H   0  0  0  0  0  0  0  0  0  0  0  0
  1  2  1  0  0  0  0
  1  3  2  0  0  0  0
  1 12  1  0  0  0  0
  2 13  1  0  0  0  0
  2 14  2  0  0  0  0
  3 15  1  0  0  0  0
  3 16  1  0  0  0  0
  4 14  1  0  0  0  0
  4 15  2  0  0  0  0
  4 17  1  0  0  0  0
  5  7  1  0  0  0  0
  5 16  1  0  0  0  0
  6  8  1  0  0  0  0
  6 16  1  0  0  0  0
  7 18  1  0  0  0  0
  8 18  1  0  0  0  0
  9 12  1  0  0  0  0
 10 13  1  0  0  0  0
 11 13  1  0  0  0  0
  5 19  1  0  0  0  0
  5 20  1  0  0  0  0
  6 21  1  0  0  0  0
  6 22  1  0  0  0  0
  7 23  1  0  0  0  0
  7 24  1  0  0  0  0
  8 25  1  0  0  0  0
  8 26  1  0  0  0  0
  9 27  1  0  0  0  0
  9 28  1  0  0  0  0
  9 29  1  0  0  0  0
 10 30  1  0  0  0  0
 10 31  1  0  0  0  0
 10 32  1  0  0  0  0
 11 33  1  0  0  0  0
 11 34  1  0  0  0  0
 11 35  1  0  0  0  0
 12 36  1  0  0  0  0
 12 37  1  0  0  0  0
 13 38  1  0  0  0  0
 17 39  1  0  0  0  0
 17 40  1  0  0  0  0
M  END
> <HYBRID receptor title>
27_FRAG(A) > 95F(A-200)

> <HYBRID receptor filename>
data/docking/pairs/27_frag.oedu

> <HYBRID Chemgauss4 score>
-11.512696

> <HYBRID receptor title>
27_FRAG(A) > 95F(A-200)

> <HYBRID receptor filename>
data/docking/pairs/27_frag.oedu

> <Dock Type>
Hybrid

$$$$
MOL0027
  -OEChem-08212416293D

 35 36  0     0  0  0  0  0  0999 V2000
    0.6927   -7.7996  -17.7378 C   0  0  0  0  0  0  0  0  0  0  0  0
    0.1108   -8.8137  -17.0050 C   0  0  0  0  0  0  0  0  0  0  0  0
    2.0528   -7.6431  -17.5664 C   0  0  0  0  0  0  0  0  0  0  0  0
    2.1149   -9.3667  -16.0849 C   0  0  0  0  0  0  0  0  0  0  0  0
   -1.7685   -9.9432  -18.1612 C   0  0  0  0  0  0  0  0  0  0  0  0
   -2.1068   -8.8792  -15.9410 C   0  0  0  0  0  0  0  0  0  0  0  0
   -3.2380   -9.6544  -18.4459 C   0  0  0  0  0  0  0  0  0  0  0  0
   -3.5578   -8.6511  -16.3491 C   0  0  0  0  0  0  0  0  0  0  0  0
   -0.0828   -6.9233  -18.6580 C   0  0  0  0  0  0  0  0  0  0  0  0
    4.0699   -5.3589  -16.7691 C   0  0  0  0  0  0  0  0  0  0  0  0
    2.8168   -5.3913  -17.6179 C   0  0  0  0  0  0  0  0  0  0  0  0
    0.7944   -9.6193  -16.1658 N   0  0  0  0  0  0  0  0  0  0  0  0
    2.7980   -8.4115  -16.7448 N   0  0  0  0  0  0  0  0  0  0  0  0
   -1.2656   -9.0214  -17.1372 N   0  0  0  0  0  0  0  0  0  0  0  0
    2.8626  -10.1891  -15.2144 N   0  0  0  0  0  0  0  0  0  0  0  0
   -3.9982   -9.6738  -17.2401 O   0  0  0  0  0  0  0  0  0  0  0  0
    2.7190   -6.6614  -18.2519 O   0  0  0  0  0  0  0  0  0  0  0  0
   -1.6640  -10.9732  -17.7968 H   0  0  0  0  0  0  0  0  0  0  0  0
   -1.1910   -9.8469  -19.0882 H   0  0  0  0  0  0  0  0  0  0  0  0
   -1.7641   -8.0420  -15.3217 H   0  0  0  0  0  0  0  0  0  0  0  0
   -2.0363   -9.7984  -15.3454 H   0  0  0  0  0  0  0  0  0  0  0  0
   -3.3664   -8.6884  -18.9490 H   0  0  0  0  0  0  0  0  0  0  0  0
   -3.6444  -10.4255  -19.1084 H   0  0  0  0  0  0  0  0  0  0  0  0
   -4.1999   -8.6820  -15.4630 H   0  0  0  0  0  0  0  0  0  0  0  0
   -3.6934   -7.6687  -16.8175 H   0  0  0  0  0  0  0  0  0  0  0  0
   -0.4643   -6.0331  -18.1386 H   0  0  0  0  0  0  0  0  0  0  0  0
   -0.9569   -7.4474  -19.0693 H   0  0  0  0  0  0  0  0  0  0  0  0
    0.5461   -6.5917  -19.4946 H   0  0  0  0  0  0  0  0  0  0  0  0
    4.0388   -6.1330  -15.9971 H   0  0  0  0  0  0  0  0  0  0  0  0
    4.9595   -5.5127  -17.3885 H   0  0  0  0  0  0  0  0  0  0  0  0
    4.1832   -4.3830  -16.2864 H   0  0  0  0  0  0  0  0  0  0  0  0
    2.8543   -4.6151  -18.3877 H   0  0  0  0  0  0  0  0  0  0  0  0
    1.9282   -5.2382  -16.9975 H   0  0  0  0  0  0  0  0  0  0  0  0
    2.3863  -10.8743  -14.6649 H   0  0  0  0  0  0  0  0  0  0  0  0
    3.8353  -10.0017  -15.0846 H   0  0  0  0  0  0  0  0  0  0  0  0
  1  2  1  0  0  0  0
  1  3  2  0  0  0  0
  1  9  1  0  0  0  0
  2 12  2  0  0  0  0
  2 14  1  0  0  0  0
  3 13  1  0  0  0  0
  3 17  1  0  0  0  0
  4 12  1  0  0  0  0
  4 13  2  0  0  0  0
  4 15  1  0  0  0  0
  5  7  1  0  0  0  0
  5 14  1  0  0  0  0
  6  8  1  0  0  0  0
  6 14  1  0  0  0  0
  7 16  1  0  0  0  0
  8 16  1  0  0  0  0
 10 11  1  0  0  0  0
 11 17  1  0  0  0  0
  5 18  1  0  0  0  0
  5 19  1  0  0  0  0
  6 20  1  0  0  0  0
  6 21  1  0  0  0  0
  7 22  1  0  0  0  0
  7 23  1  0  0  0  0
  8 24  1  0  0  0  0
  8 25  1  0  0  0  0
  9 26  1  0  0  0  0
  9 27  1  0  0  0  0
  9 28  1  0  0  0  0
 10 29  1  0  0  0  0
 10 30  1  0  0  0  0
 10 31  1  0  0  0  0
 11 32  1  0  0  0  0
 11 33  1  0  0  0  0
 15 34  1  0  0  0  0
 15 35  1  0  0  0  0
M  END
> <HYBRID receptor title>
27_FRAG(A) > 95F(A-200)

> <HYBRID receptor filename>
data/docking/pairs/27_frag.oedu

> <HYBRID Chemgauss4 score>
-11.270927

> <HYBRID receptor title>
27_FRAG(A) > 95F(A-200)

> <HYBRID receptor filename>
data/docking/pairs/27_frag.oedu

> <Dock Type>
Hybrid

$$$$
MOL0058
  -OEChem-08212416293D

 29 30  0     0  0  0  0  0  0999 V2000
    0.9866   -7.8720  -17.4065 C   0  0  0  0  0  0  0  0  0  0  0  0
    0.3111   -8.7951  -16.6347 C   0  0  0  0  0  0  0  0  0  0  0  0
    2.3611   -7.8844  -17.2866 C   0  0  0  0  0  0  0  0  0  0  0  0
    2.2641   -9.5815  -15.7767 C   0  0  0  0  0  0  0  0  0  0  0  0
   -1.8641   -7.6278  -16.3841 C   0  0  0  0  0  0  0  0  0  0  0  0
   -1.8462  -10.0587  -16.7433 C   0  0  0  0  0  0  0  0  0  0  0  0
   -2.5577   -7.8852  -15.0462 C   0  0  0  0  0  0  0  0  0  0  0  0
   -2.5259  -10.2296  -15.3893 C   0  0  0  0  0  0  0  0  0  0  0  0
    2.3869   -6.1094  -18.8697 C   0  0  0  0  0  0  0  0  0  0  0  0
    0.9204   -9.6681  -15.8058 N   0  0  0  0  0  0  0  0  0  0  0  0
    3.0354   -8.7284  -16.4781 N   0  0  0  0  0  0  0  0  0  0  0  0
   -1.0752   -8.8148  -16.7276 N   0  0  0  0  0  0  0  0  0  0  0  0
    2.9357  -10.4800  -14.9196 N   0  0  0  0  0  0  0  0  0  0  0  0
   -3.3341   -9.0858  -15.0955 O   0  0  0  0  0  0  0  0  0  0  0  0
    3.1041   -6.9976  -18.0198 O   0  0  0  0  0  0  0  0  0  0  0  0
    0.4775   -7.1797  -18.0664 H   0  0  0  0  0  0  0  0  0  0  0  0
   -2.6162   -7.4606  -17.1553 H   0  0  0  0  0  0  0  0  0  0  0  0
   -1.2299   -6.7470  -16.3016 H   0  0  0  0  0  0  0  0  0  0  0  0
   -1.2019  -10.9176  -16.9402 H   0  0  0  0  0  0  0  0  0  0  0  0
   -2.6069   -9.9996  -17.5262 H   0  0  0  0  0  0  0  0  0  0  0  0
   -1.8329   -7.9485  -14.2257 H   0  0  0  0  0  0  0  0  0  0  0  0
   -3.2389   -7.0589  -14.8190 H   0  0  0  0  0  0  0  0  0  0  0  0
   -3.1822  -11.1021  -15.4119 H   0  0  0  0  0  0  0  0  0  0  0  0
   -1.7964  -10.3808  -14.5887 H   0  0  0  0  0  0  0  0  0  0  0  0
    3.0904   -5.4585  -19.3953 H   0  0  0  0  0  0  0  0  0  0  0  0
    1.8207   -6.6942  -19.5986 H   0  0  0  0  0  0  0  0  0  0  0  0
    1.6965   -5.5100  -18.2719 H   0  0  0  0  0  0  0  0  0  0  0  0
    2.3989  -11.0932  -14.3417 H   0  0  0  0  0  0  0  0  0  0  0  0
    3.9284  -10.4141  -14.8279 H   0  0  0  0  0  0  0  0  0  0  0  0
  1  2  2  0  0  0  0
  1  3  1  0  0  0  0
  2 10  1  0  0  0  0
  2 12  1  0  0  0  0
  3 11  2  0  0  0  0
  3 15  1  0  0  0  0
  4 10  2  0  0  0  0
  4 11  1  0  0  0  0
  4 13  1  0  0  0  0
  5  7  1  0  0  0  0
  5 12  1  0  0  0  0
  6  8  1  0  0  0  0
  6 12  1  0  0  0  0
  7 14  1  0  0  0  0
  8 14  1  0  0  0  0
  9 15  1  0  0  0  0
  1 16  1  0  0  0  0
  5 17  1  0  0  0  0
  5 18  1  0  0  0  0
  6 19  1  0  0  0  0
  6 20  1  0  0  0  0
  7 21  1  0  0  0  0
  7 22  1  0  0  0  0
  8 23  1  0  0  0  0
  8 24  1  0  0  0  0
  9 25  1  0  0  0  0
  9 26  1  0  0  0  0
  9 27  1  0  0  0  0
 13 28  1  0  0  0  0
 13 29  1  0  0  0  0
M  END
> <HYBRID receptor title>
27_FRAG(A) > 95F(A-200)

> <HYBRID receptor filename>
data/docking/pairs/27_frag.oedu

> <HYBRID Chemgauss4 score>
-11.204081

> <HYBRID receptor title>
27_FRAG(A) > 95F(A-200)

> <HYBRID receptor filename>
data/docking/pairs/27_frag.oedu

> <Dock Type>
Hybrid

$$$$
MOL0040
  -OEChem-08212416293D

 41 43  0     0  0  0  0  0  0999 V2000
    0.8828   -8.0838  -17.6288 C   0  0  0  0  0  0  0  0  0  0  0  0
    2.2560   -7.9985  -17.5238 C   0  0  0  0  0  0  0  0  0  0  0  0
    0.2714   -8.9691  -16.7650 C   0  0  0  0  0  0  0  0  0  0  0  0
    2.2750   -9.5460  -15.8584 C   0  0  0  0  0  0  0  0  0  0  0  0
    0.2268   -5.8543  -18.4909 C   0  0  0  0  0  0  0  0  0  0  0  0
   -0.0802   -7.8889  -19.8846 C   0  0  0  0  0  0  0  0  0  0  0  0
   -1.7144  -10.4069  -17.1305 C   0  0  0  0  0  0  0  0  0  0  0  0
   -1.9361   -8.2131  -15.9842 C   0  0  0  0  0  0  0  0  0  0  0  0
   -0.9595   -5.2508  -19.2344 C   0  0  0  0  0  0  0  0  0  0  0  0
   -1.2484   -7.1713  -20.5512 C   0  0  0  0  0  0  0  0  0  0  0  0
   -3.1510  -10.2246  -17.6070 C   0  0  0  0  0  0  0  0  0  0  0  0
   -3.3607   -8.1539  -16.5235 C   0  0  0  0  0  0  0  0  0  0  0  0
    3.0313   -7.0747  -18.4057 C   0  0  0  0  0  0  0  0  0  0  0  0
    2.9866   -8.7176  -16.6466 N   0  0  0  0  0  0  0  0  0  0  0  0
    0.9392   -9.7193  -15.8639 N   0  0  0  0  0  0  0  0  0  0  0  0
    0.1652   -7.3184  -18.5531 N   0  0  0  0  0  0  0  0  0  0  0  0
   -1.1194   -9.1026  -16.8212 N   0  0  0  0  0  0  0  0  0  0  0  0
    3.0069  -10.3154  -14.9281 N   0  0  0  0  0  0  0  0  0  0  0  0
   -1.0341   -5.7614  -20.5633 O   0  0  0  0  0  0  0  0  0  0  0  0
   -3.9026   -9.4658  -16.6628 O   0  0  0  0  0  0  0  0  0  0  0  0
    1.1600   -5.5160  -18.9592 H   0  0  0  0  0  0  0  0  0  0  0  0
    0.2200   -5.5088  -17.4505 H   0  0  0  0  0  0  0  0  0  0  0  0
   -0.3002   -8.9606  -19.8142 H   0  0  0  0  0  0  0  0  0  0  0  0
    0.8218   -7.7629  -20.4972 H   0  0  0  0  0  0  0  0  0  0  0  0
   -1.7047  -11.0294  -16.2224 H   0  0  0  0  0  0  0  0  0  0  0  0
   -1.1338  -10.9322  -17.9031 H   0  0  0  0  0  0  0  0  0  0  0  0
   -1.5102   -7.1995  -15.9524 H   0  0  0  0  0  0  0  0  0  0  0  0
   -1.9486   -8.6041  -14.9550 H   0  0  0  0  0  0  0  0  0  0  0  0
   -1.9025   -5.4457  -18.7095 H   0  0  0  0  0  0  0  0  0  0  0  0
   -0.8398   -4.1647  -19.3010 H   0  0  0  0  0  0  0  0  0  0  0  0
   -1.3412   -7.5030  -21.5903 H   0  0  0  0  0  0  0  0  0  0  0  0
   -2.1972   -7.3970  -20.0494 H   0  0  0  0  0  0  0  0  0  0  0  0
   -3.1887   -9.7364  -18.5883 H   0  0  0  0  0  0  0  0  0  0  0  0
   -3.6334  -11.2021  -17.7084 H   0  0  0  0  0  0  0  0  0  0  0  0
   -3.9978   -7.6029  -15.8241 H   0  0  0  0  0  0  0  0  0  0  0  0
   -3.4039   -7.6316  -17.4869 H   0  0  0  0  0  0  0  0  0  0  0  0
    3.1376   -6.0843  -17.9462 H   0  0  0  0  0  0  0  0  0  0  0  0
    2.5250   -6.9283  -19.3679 H   0  0  0  0  0  0  0  0  0  0  0  0
    4.0313   -7.4813  -18.5951 H   0  0  0  0  0  0  0  0  0  0  0  0
    4.0043  -10.2572  -14.9275 H   0  0  0  0  0  0  0  0  0  0  0  0
    2.5237  -10.9811  -14.3611 H   0  0  0  0  0  0  0  0  0  0  0  0
  1  2  2  0  0  0  0
  1  3  1  0  0  0  0
  1 16  1  0  0  0  0
  2 13  1  0  0  0  0
  2 14  1  0  0  0  0
  3 15  2  0  0  0  0
  3 17  1  0  0  0  0
  4 14  2  0  0  0  0
  4 15  1  0  0  0  0
  4 18  1  0  0  0  0
  5  9  1  0  0  0  0
  5 16  1  0  0  0  0
  6 10  1  0  0  0  0
  6 16  1  0  0  0  0
  7 11  1  0  0  0  0
  7 17  1  0  0  0  0
  8 12  1  0  0  0  0
  8 17  1  0  0  0  0
  9 19  1  0  0  0  0
 10 19  1  0  0  0  0
 11 20  1  0  0  0  0
 12 20  1  0  0  0  0
  5 21  1  0  0  0  0
  5 22  1  0  0  0  0
  6 23  1  0  0  0  0
  6 24  1  0  0  0  0
  7 25  1  0  0  0  0
  7 26  1  0  0  0  0
  8 27  1  0  0  0  0
  8 28  1  0  0  0  0
  9 29  1  0  0  0  0
  9 30  1  0  0  0  0
 10 31  1  0  0  0  0
 10 32  1  0  0  0  0
 11 33  1  0  0  0  0
 11 34  1  0  0  0  0
 12 35  1  0  0  0  0
 12 36  1  0  0  0  0
 13 37  1  0  0  0  0
 13 38  1  0  0  0  0
 13 39  1  0  0  0  0
 18 40  1  0  0  0  0
 18 41  1  0  0  0  0
M  END
> <HYBRID receptor title>
27_FRAG(A) > 95F(A-200)

> <HYBRID receptor filename>
data/docking/pairs/27_frag.oedu

> <HYBRID Chemgauss4 score>
-10.848318

> <HYBRID receptor title>
27_FRAG(A) > 95F(A-200)

> <HYBRID receptor filename>
data/docking/pairs/27_frag.oedu

> <Dock Type>
Hybrid

$$$$
MOL0062
  -OEChem-08212416293D

 37 38  0     0  0  0  0  0  0999 V2000
    0.4211   -8.1302  -17.4314 C   0  0  0  0  0  0  0  0  0  0  0  0
    1.7817   -7.9125  -17.3567 C   0  0  0  0  0  0  0  0  0  0  0  0
   -0.0627   -9.1610  -16.6524 C   0  0  0  0  0  0  0  0  0  0  0  0
    2.0233   -9.6165  -15.8712 C   0  0  0  0  0  0  0  0  0  0  0  0
   -2.1982   -9.1332  -17.9157 C   0  0  0  0  0  0  0  0  0  0  0  0
   -2.2473   -9.5454  -15.4937 C   0  0  0  0  0  0  0  0  0  0  0  0
   -3.0521   -7.8898  -17.6667 C   0  0  0  0  0  0  0  0  0  0  0  0
   -3.0855   -8.2824  -15.3301 C   0  0  0  0  0  0  0  0  0  0  0  0
    1.3931   -5.6459  -18.3839 C   0  0  0  0  0  0  0  0  0  0  0  0
    2.8367   -7.3329  -19.5689 C   0  0  0  0  0  0  0  0  0  0  0  0
    3.6739   -6.1634  -17.5409 C   0  0  0  0  0  0  0  0  0  0  0  0
    2.3971   -6.8189  -18.1635 C   0  0  0  0  0  0  0  0  0  0  0  0
    2.6155   -8.6393  -16.5841 N   0  0  0  0  0  0  0  0  0  0  0  0
    0.7128   -9.9277  -15.8577 N   0  0  0  0  0  0  0  0  0  0  0  0
   -1.4286   -9.4122  -16.6995 N   0  0  0  0  0  0  0  0  0  0  0  0
    2.8657  -10.3980  -15.0508 N   0  0  0  0  0  0  0  0  0  0  0  0
   -3.8704   -8.0559  -16.5050 O   0  0  0  0  0  0  0  0  0  0  0  0
   -0.2220   -7.5280  -18.0623 H   0  0  0  0  0  0  0  0  0  0  0  0
   -2.8481   -9.9811  -18.1322 H   0  0  0  0  0  0  0  0  0  0  0  0
   -1.5390   -8.9579  -18.7641 H   0  0  0  0  0  0  0  0  0  0  0  0
   -1.6235   -9.6875  -14.6093 H   0  0  0  0  0  0  0  0  0  0  0  0
   -2.9092  -10.4084  -15.6028 H   0  0  0  0  0  0  0  0  0  0  0  0
   -2.4303   -6.9936  -17.5544 H   0  0  0  0  0  0  0  0  0  0  0  0
   -3.7175   -7.7225  -18.5198 H   0  0  0  0  0  0  0  0  0  0  0  0
   -3.7730   -8.4004  -14.4899 H   0  0  0  0  0  0  0  0  0  0  0  0
   -2.4606   -7.4074  -15.1300 H   0  0  0  0  0  0  0  0  0  0  0  0
    1.8608   -4.8517  -18.9778 H   0  0  0  0  0  0  0  0  0  0  0  0
    0.4821   -5.9606  -18.9071 H   0  0  0  0  0  0  0  0  0  0  0  0
    1.0780   -5.2027  -17.4325 H   0  0  0  0  0  0  0  0  0  0  0  0
    3.2930   -6.5474  -20.1831 H   0  0  0  0  0  0  0  0  0  0  0  0
    3.5691   -8.1421  -19.4653 H   0  0  0  0  0  0  0  0  0  0  0  0
    1.9875   -7.7281  -20.1354 H   0  0  0  0  0  0  0  0  0  0  0  0
    4.0883   -5.3670  -18.1698 H   0  0  0  0  0  0  0  0  0  0  0  0
    4.4660   -6.9086  -17.4016 H   0  0  0  0  0  0  0  0  0  0  0  0
    3.4481   -5.7179  -16.5646 H   0  0  0  0  0  0  0  0  0  0  0  0
    3.8512  -10.2351  -15.0717 H   0  0  0  0  0  0  0  0  0  0  0  0
    2.4755  -11.1669  -14.5462 H   0  0  0  0  0  0  0  0  0  0  0  0
  1  2  1  0  0  0  0
  1  3  2  0  0  0  0
  2 12  1  0  0  0  0
  2 13  2  0  0  0  0
  3 14  1  0  0  0  0
  3 15  1  0  0  0  0
  4 13  1  0  0  0  0
  4 14  2  0  0  0  0
  4 16  1  0  0  0  0
  5  7  1  0  0  0  0
  5 15  1  0  0  0  0
  6  8  1  0  0  0  0
  6 15  1  0  0  0  0
  7 17  1  0  0  0  0
  8 17  1  0  0  0  0
  9 12  1  0  0  0  0
 10 12  1  0  0  0  0
 11 12  1  0  0  0  0
  1 18  1  0  0  0  0
  5 19  1  0  0  0  0
  5 20  1  0  0  0  0
  6 21  1  0  0  0  0
  6 22  1  0  0  0  0
  7 23  1  0  0  0  0
  7 24  1  0  0  0  0
  8 25  1  0  0  0  0
  8 26  1  0  0  0  0
  9 27  1  0  0  0  0
  9 28  1  0  0  0  0
  9 29  1  0  0  0  0
 10 30  1  0  0  0  0
 10 31  1  0  0  0  0
 10 32  1  0  0  0  0
 11 33  1  0  0  0  0
 11 34  1  0  0  0  0
 11 35  1  0  0  0  0
 16 36  1  0  0  0  0
 16 37  1  0  0  0  0
M  END
> <HYBRID receptor title>
27_FRAG(A) > 95F(A-200)

> <HYBRID receptor filename>
data/docking/pairs/27_frag.oedu

> <HYBRID Chemgauss4 score>
-10.591587

> <HYBRID receptor title>
27_FRAG(A) > 95F(A-200)

> <HYBRID receptor filename>
data/docking/pairs/27_frag.oedu

> <Dock Type>
Hybrid

$$$$
MOL0060
  -OEChem-08212416293D

 34 35  0     0  0  0  0  0  0999 V2000
   -1.0819   -5.3541  -20.4069 C   0  0  0  0  0  0  0  0  0  0  0  0
   -1.0510   -6.7417  -20.5455 C   0  0  0  0  0  0  0  0  0  0  0  0
   -0.3714   -4.7409  -19.3751 C   0  0  0  0  0  0  0  0  0  0  0  0
   -0.3097   -7.5159  -19.6528 C   0  0  0  0  0  0  0  0  0  0  0  0
    0.3698   -5.5151  -18.4823 C   0  0  0  0  0  0  0  0  0  0  0  0
    0.4007   -6.9027  -18.6209 C   0  0  0  0  0  0  0  0  0  0  0  0
    1.1692   -7.7054  -17.6945 C   0  0  0  0  0  0  0  0  0  0  0  0
    0.5772   -8.6725  -16.9083 C   0  0  0  0  0  0  0  0  0  0  0  0
    2.5324   -7.5603  -17.5383 C   0  0  0  0  0  0  0  0  0  0  0  0
    2.5786   -9.2076  -15.9719 C   0  0  0  0  0  0  0  0  0  0  0  0
   -0.8935   -8.9307  -16.9819 C   0  0  0  0  0  0  0  0  0  0  0  0
   -1.7530   -7.8797  -16.2650 C   0  0  0  0  0  0  0  0  0  0  0  0
   -1.5025   -7.8239  -14.7626 C   0  0  0  0  0  0  0  0  0  0  0  0
    1.2542   -9.4447  -16.0331 N   0  0  0  0  0  0  0  0  0  0  0  0
    3.2714   -8.2970  -16.6827 N   0  0  0  0  0  0  0  0  0  0  0  0
    3.2094   -6.5862  -18.3141 N   0  0  0  0  0  0  0  0  0  0  0  0
    3.3194   -9.9995  -15.0674 N   0  0  0  0  0  0  0  0  0  0  0  0
   -1.7860   -9.1000  -14.2050 O   0  0  0  0  0  0  0  0  0  0  0  0
   -1.6593   -4.7512  -21.1015 H   0  0  0  0  0  0  0  0  0  0  0  0
   -1.6035   -7.2192  -21.3495 H   0  0  0  0  0  0  0  0  0  0  0  0
   -0.3956   -3.6605  -19.2670 H   0  0  0  0  0  0  0  0  0  0  0  0
   -0.2964   -8.5966  -19.7739 H   0  0  0  0  0  0  0  0  0  0  0  0
    0.9189   -5.0222  -17.6836 H   0  0  0  0  0  0  0  0  0  0  0  0
   -1.1954   -8.9659  -18.0410 H   0  0  0  0  0  0  0  0  0  0  0  0
   -1.1358   -9.9283  -16.5822 H   0  0  0  0  0  0  0  0  0  0  0  0
   -1.5914   -6.8846  -16.6990 H   0  0  0  0  0  0  0  0  0  0  0  0
   -2.8141   -8.1032  -16.4347 H   0  0  0  0  0  0  0  0  0  0  0  0
   -0.4572   -7.5767  -14.5497 H   0  0  0  0  0  0  0  0  0  0  0  0
   -2.1505   -7.0882  -14.2766 H   0  0  0  0  0  0  0  0  0  0  0  0
    2.6933   -6.0676  -18.9904 H   0  0  0  0  0  0  0  0  0  0  0  0
    4.2006   -6.5174  -18.2404 H   0  0  0  0  0  0  0  0  0  0  0  0
    2.8362  -10.6507  -14.4839 H   0  0  0  0  0  0  0  0  0  0  0  0
    4.2954   -9.8207  -14.9519 H   0  0  0  0  0  0  0  0  0  0  0  0
   -1.6177   -9.0325  -13.2513 H   0  0  0  0  0  0  0  0  0  0  0  0
  1  2  1  0  0  0  0
  1  3  2  0  0  0  0
  2  4  2  0  0  0  0
  3  5  1  0  0  0  0
  4  6  1  0  0  0  0
  5  6  2  0  0  0  0
  6  7  1  0  0  0  0
  7  8  2  0  0  0  0
  7  9  1  0  0  0  0
  8 11  1  0  0  0  0
  8 14  1  0  0  0  0
  9 15  2  0  0  0  0
  9 16  1  0  0  0  0
 10 14  2  0  0  0  0
 10 15  1  0  0  0  0
 10 17  1  0  0  0  0
 11 12  1  0  0  0  0
 12 13  1  0  0  0  0
 13 18  1  0  0  0  0
  1 19  1  0  0  0  0
  2 20  1  0  0  0  0
  3 21  1  0  0  0  0
  4 22  1  0  0  0  0
  5 23  1  0  0  0  0
 11 24  1  0  0  0  0
 11 25  1  0  0  0  0
 12 26  1  0  0  0  0
 12 27  1  0  0  0  0
 13 28  1  0  0  0  0
 13 29  1  0  0  0  0
 16 30  1  0  0  0  0
 16 31  1  0  0  0  0
 17 32  1  0  0  0  0
 17 33  1  0  0  0  0
 18 34  1  0  0  0  0
M  END
> <HYBRID receptor title>
27_FRAG(A) > 95F(A-200)

> <HYBRID receptor filename>
data/docking/pairs/27_frag.oedu

> <HYBRID Chemgauss4 score>
-10.570380

> <HYBRID receptor title>
27_FRAG(A) > 95F(A-200)

> <HYBRID receptor filename>
data/docking/pairs/27_frag.oedu

> <Dock Type>
Hybrid

$$$$
MOL0068
  -OEChem-08212416293D

 23 23  0     0  0  0  0  0  0999 V2000
    0.7081   -8.0236  -17.8087 C   0  0  0  0  0  0  0  0  0  0  0  0
    0.2393   -9.0298  -16.9891 C   0  0  0  0  0  0  0  0  0  0  0  0
    2.0391   -7.6957  -17.6509 C   0  0  0  0  0  0  0  0  0  0  0  0
    2.2837   -9.2632  -16.0222 C   0  0  0  0  0  0  0  0  0  0  0  0
   -1.1847   -9.4721  -17.0714 C   0  0  0  0  0  0  0  0  0  0  0  0
    0.0705   -7.8272  -20.2251 C   0  0  0  0  0  0  0  0  0  0  0  0
   -0.1730   -7.3428  -18.7971 C   0  0  0  0  0  0  0  0  0  0  0  0
    1.0023   -9.6735  -16.0813 N   0  0  0  0  0  0  0  0  0  0  0  0
    2.8590   -8.2970  -16.7637 N   0  0  0  0  0  0  0  0  0  0  0  0
    2.5804   -6.6719  -18.4670 N   0  0  0  0  0  0  0  0  0  0  0  0
    3.1115   -9.9144  -15.0819 N   0  0  0  0  0  0  0  0  0  0  0  0
   -1.3068  -10.2841  -17.7990 H   0  0  0  0  0  0  0  0  0  0  0  0
   -1.8365   -8.6512  -17.3962 H   0  0  0  0  0  0  0  0  0  0  0  0
   -1.5299   -9.8256  -16.0927 H   0  0  0  0  0  0  0  0  0  0  0  0
   -0.0685   -8.9111  -20.3010 H   0  0  0  0  0  0  0  0  0  0  0  0
    1.0908   -7.5960  -20.5488 H   0  0  0  0  0  0  0  0  0  0  0  0
   -0.6233   -7.3466  -20.9219 H   0  0  0  0  0  0  0  0  0  0  0  0
   -0.0246   -6.2511  -18.7593 H   0  0  0  0  0  0  0  0  0  0  0  0
   -1.2341   -7.4998  -18.5407 H   0  0  0  0  0  0  0  0  0  0  0  0
    2.0020   -6.2568  -19.1644 H   0  0  0  0  0  0  0  0  0  0  0  0
    3.5528   -6.4649  -18.3973 H   0  0  0  0  0  0  0  0  0  0  0  0
    2.7112  -10.5994  -14.4747 H   0  0  0  0  0  0  0  0  0  0  0  0
    4.0546   -9.6049  -14.9682 H   0  0  0  0  0  0  0  0  0  0  0  0
  1  2  1  0  0  0  0
  1  3  2  0  0  0  0
  1  7  1  0  0  0  0
  2  5  1  0  0  0  0
  2  8  2  0  0  0  0
  3  9  1  0  0  0  0
  3 10  1  0  0  0  0
  4  8  1  0  0  0  0
  4  9  2  0  0  0  0
  4 11  1  0  0  0  0
  6  7  1  0  0  0  0
  5 12  1  0  0  0  0
  5 13  1  0  0  0  0
  5 14  1  0  0  0  0
  6 15  1  0  0  0  0
  6 16  1  0  0  0  0
  6 17  1  0  0  0  0
  7 18  1  0  0  0  0
  7 19  1  0  0  0  0
 10 20  1  0  0  0  0
 10 21  1  0  0  0  0
 11 22  1  0  0  0  0
 11 23  1  0  0  0  0
M  END
> <HYBRID receptor title>
27_FRAG(A) > 95F(A-200)

> <HYBRID receptor filename>
data/docking/pairs/27_frag.oedu

> <HYBRID Chemgauss4 score>
-10.259470

> <HYBRID receptor title>
27_FRAG(A) > 95F(A-200)

> <HYBRID receptor filename>
data/docking/pairs/27_frag.oedu

> <Dock Type>
Hybrid

$$$$
MOL0061
  -OEChem-08212416293D

 24 25  0     0  0  0  0  0  0999 V2000
   -2.4642   -9.2883  -14.1336 C   0  0  0  0  0  0  0  0  0  0  0  0
   -2.1591   -9.9782  -15.3069 C   0  0  0  0  0  0  0  0  0  0  0  0
   -1.7264   -8.1597  -13.7769 C   0  0  0  0  0  0  0  0  0  0  0  0
   -1.1166   -9.5394  -16.1235 C   0  0  0  0  0  0  0  0  0  0  0  0
   -0.6840   -7.7208  -14.5935 C   0  0  0  0  0  0  0  0  0  0  0  0
    0.4679   -7.0479  -17.6256 C   0  0  0  0  0  0  0  0  0  0  0  0
   -0.3789   -8.4106  -15.7668 C   0  0  0  0  0  0  0  0  0  0  0  0
    0.7026   -7.9556  -16.6132 C   0  0  0  0  0  0  0  0  0  0  0  0
    2.0094   -8.3778  -16.4803 C   0  0  0  0  0  0  0  0  0  0  0  0
    2.6620   -7.0686  -18.2209 C   0  0  0  0  0  0  0  0  0  0  0  0
    1.4277   -6.5814  -18.4512 N   0  0  0  0  0  0  0  0  0  0  0  0
    3.0182   -7.9537  -17.2698 N   0  0  0  0  0  0  0  0  0  0  0  0
    2.3229   -9.3104  -15.4600 N   0  0  0  0  0  0  0  0  0  0  0  0
    3.6923   -6.6023  -19.0661 N   0  0  0  0  0  0  0  0  0  0  0  0
   -3.2753   -9.6301  -13.4974 H   0  0  0  0  0  0  0  0  0  0  0  0
   -2.7340  -10.8566  -15.5851 H   0  0  0  0  0  0  0  0  0  0  0  0
   -1.9638   -7.6227  -12.8632 H   0  0  0  0  0  0  0  0  0  0  0  0
   -0.8908  -10.0886  -17.0345 H   0  0  0  0  0  0  0  0  0  0  0  0
   -0.1186   -6.8389  -14.3021 H   0  0  0  0  0  0  0  0  0  0  0  0
   -0.5243   -6.6503  -17.8180 H   0  0  0  0  0  0  0  0  0  0  0  0
    1.6032   -9.5960  -14.8328 H   0  0  0  0  0  0  0  0  0  0  0  0
    3.2740   -9.5764  -15.3279 H   0  0  0  0  0  0  0  0  0  0  0  0
    3.4620   -5.9860  -19.8180 H   0  0  0  0  0  0  0  0  0  0  0  0
    4.6122   -6.9782  -18.9638 H   0  0  0  0  0  0  0  0  0  0  0  0
  1  2  1  0  0  0  0
  1  3  2  0  0  0  0
  2  4  2  0  0  0  0
  3  5  1  0  0  0  0
  4  7  1  0  0  0  0
  5  7  2  0  0  0  0
  6  8  1  0  0  0  0
  6 11  2  0  0  0  0
  7  8  1  0  0  0  0
  8  9  2  0  0  0  0
  9 12  1  0  0  0  0
  9 13  1  0  0  0  0
 10 11  1  0  0  0  0
 10 12  2  0  0  0  0
 10 14  1  0  0  0  0
  1 15  1  0  0  0  0
  2 16  1  0  0  0  0
  3 17  1  0  0  0  0
  4 18  1  0  0  0  0
  5 19  1  0  0  0  0
  6 20  1  0  0  0  0
 13 21  1  0  0  0  0
 13 22  1  0  0  0  0
 14 23  1  0  0  0  0
 14 24  1  0  0  0  0
M  END
> <HYBRID receptor title>
27_FRAG(A) > 95F(A-200)

> <HYBRID receptor filename>
data/docking/pairs/27_frag.oedu

> <HYBRID Chemgauss4 score>
-9.901398

> <HYBRID receptor title>
27_FRAG(A) > 95F(A-200)

> <HYBRID receptor filename>
data/docking/pairs/27_frag.oedu

> <Dock Type>
Hybrid

$$$$
MOL0050
  -OEChem-08212416293D

 30 31  0     0  0  0  0  0  0999 V2000
    0.9606   -8.0808  -17.3138 C   0  0  0  0  0  0  0  0  0  0  0  0
    0.1785   -8.8592  -16.4889 C   0  0  0  0  0  0  0  0  0  0  0  0
    2.8335   -8.7950  -16.2123 C   0  0  0  0  0  0  0  0  0  0  0  0
    2.0511   -9.5734  -15.3872 C   0  0  0  0  0  0  0  0  0  0  0  0
   -1.8218   -9.8403  -17.5754 C   0  0  0  0  0  0  0  0  0  0  0  0
   -2.0535   -8.4121  -15.5549 C   0  0  0  0  0  0  0  0  0  0  0  0
   -3.2137   -9.3699  -17.9822 C   0  0  0  0  0  0  0  0  0  0  0  0
   -3.4329   -8.0226  -16.0738 C   0  0  0  0  0  0  0  0  0  0  0  0
    0.3692   -7.2404  -18.3948 C   0  0  0  0  0  0  0  0  0  0  0  0
    2.3019   -8.0345  -17.1906 N   0  0  0  0  0  0  0  0  0  0  0  0
    0.7100   -9.6198  -15.5107 N   0  0  0  0  0  0  0  0  0  0  0  0
   -1.2082   -8.8649  -16.6681 N   0  0  0  0  0  0  0  0  0  0  0  0
    4.2366   -8.7849  -16.0394 N   0  0  0  0  0  0  0  0  0  0  0  0
    2.6610  -10.3523  -14.3771 N   0  0  0  0  0  0  0  0  0  0  0  0
   -4.0060   -9.0862  -16.8317 O   0  0  0  0  0  0  0  0  0  0  0  0
   -0.9916   -7.3248  -18.4744 F   0  0  0  0  0  0  0  0  0  0  0  0
    0.8298   -7.5790  -19.6342 F   0  0  0  0  0  0  0  0  0  0  0  0
    0.6366   -5.9080  -18.2559 F   0  0  0  0  0  0  0  0  0  0  0  0
   -1.9002  -10.8066  -17.0609 H   0  0  0  0  0  0  0  0  0  0  0  0
   -1.2061   -9.9779  -18.4721 H   0  0  0  0  0  0  0  0  0  0  0  0
   -1.5984   -7.5554  -15.0443 H   0  0  0  0  0  0  0  0  0  0  0  0
   -2.1548   -9.2300  -14.8299 H   0  0  0  0  0  0  0  0  0  0  0  0
   -3.1647   -8.4833  -18.6259 H   0  0  0  0  0  0  0  0  0  0  0  0
   -3.7193  -10.1587  -18.5486 H   0  0  0  0  0  0  0  0  0  0  0  0
   -4.1003   -7.8172  -15.2306 H   0  0  0  0  0  0  0  0  0  0  0  0
   -3.3896   -7.1136  -16.6860 H   0  0  0  0  0  0  0  0  0  0  0  0
    4.6349   -9.3033  -15.2852 H   0  0  0  0  0  0  0  0  0  0  0  0
    4.7898   -8.1779  -16.6067 H   0  0  0  0  0  0  0  0  0  0  0  0
    3.6569  -10.3662  -14.3121 H   0  0  0  0  0  0  0  0  0  0  0  0
    2.0917  -10.9531  -13.8193 H   0  0  0  0  0  0  0  0  0  0  0  0
  1  2  1  0  0  0  0
  1  9  1  0  0  0  0
  1 10  2  0  0  0  0
  2 11  2  0  0  0  0
  2 12  1  0  0  0  0
  3  4  2  0  0  0  0
  3 10  1  0  0  0  0
  3 13  1  0  0  0  0
  4 11  1  0  0  0  0
  4 14  1  0  0  0  0
  5  7  1  0  0  0  0
  5 12  1  0  0  0  0
  6  8  1  0  0  0  0
  6 12  1  0  0  0  0
  7 15  1  0  0  0  0
  8 15  1  0  0  0  0
  9 16  1  0  0  0  0
  9 17  1  0  0  0  0
  9 18  1  0  0  0  0
  5 19  1  0  0  0  0
  5 20  1  0  0  0  0
  6 21  1  0  0  0  0
  6 22  1  0  0  0  0
  7 23  1  0  0  0  0
  7 24  1  0  0  0  0
  8 25  1  0  0  0  0
  8 26  1  0  0  0  0
 13 27  1  0  0  0  0
 13 28  1  0  0  0  0
 14 29  1  0  0  0  0
 14 30  1  0  0  0  0
M  END
> <HYBRID receptor title>
27_FRAG(A) > 95F(A-200)

> <HYBRID receptor filename>
data/docking/pairs/27_frag.oedu

> <HYBRID Chemgauss4 score>
-9.510210

> <HYBRID receptor title>
27_FRAG(A) > 95F(A-200)

> <HYBRID receptor filename>
data/docking/pairs/27_frag.oedu

> <Dock Type>
Hybrid

$$$$
MOL0059
  -OEChem-08212416293D

 31 32  0     0  0  0  0  0  0999 V2000
   -4.4558   -9.4228  -16.4984 C   0  0  0  0  0  0  0  0  0  0  0  0
   -3.8779   -9.9562  -17.6505 C   0  0  0  0  0  0  0  0  0  0  0  0
   -3.7314   -8.5361  -15.7019 C   0  0  0  0  0  0  0  0  0  0  0  0
   -2.5761   -9.6029  -18.0061 C   0  0  0  0  0  0  0  0  0  0  0  0
   -2.4296   -8.1828  -16.0575 C   0  0  0  0  0  0  0  0  0  0  0  0
   -1.8517   -8.7161  -17.2095 C   0  0  0  0  0  0  0  0  0  0  0  0
   -0.5014   -8.3499  -17.5778 C   0  0  0  0  0  0  0  0  0  0  0  0
    1.7039   -8.3361  -16.9713 C   0  0  0  0  0  0  0  0  0  0  0  0
   -0.1786   -7.7307  -18.7655 C   0  0  0  0  0  0  0  0  0  0  0  0
    2.0265   -7.7169  -18.1592 C   0  0  0  0  0  0  0  0  0  0  0  0
    2.7417   -8.6819  -15.9575 C   0  0  0  0  0  0  0  0  0  0  0  0
    2.2220   -9.6232  -14.8666 C   0  0  0  0  0  0  0  0  0  0  0  0
    0.4337   -8.6638  -16.6594 N   0  0  0  0  0  0  0  0  0  0  0  0
    1.0915   -7.4029  -19.0774 N   0  0  0  0  0  0  0  0  0  0  0  0
   -1.2004   -7.4245  -19.6931 N   0  0  0  0  0  0  0  0  0  0  0  0
    3.3770   -7.3991  -18.4275 N   0  0  0  0  0  0  0  0  0  0  0  0
    3.2626   -9.8931  -13.9357 O   0  0  0  0  0  0  0  0  0  0  0  0
   -5.4690   -9.6982  -16.2211 H   0  0  0  0  0  0  0  0  0  0  0  0
   -4.4422  -10.6461  -18.2711 H   0  0  0  0  0  0  0  0  0  0  0  0
   -4.1811   -8.1210  -14.8048 H   0  0  0  0  0  0  0  0  0  0  0  0
   -2.1396  -10.0280  -18.9069 H   0  0  0  0  0  0  0  0  0  0  0  0
   -1.8780   -7.4898  -15.4266 H   0  0  0  0  0  0  0  0  0  0  0  0
    3.6155   -9.1424  -16.4493 H   0  0  0  0  0  0  0  0  0  0  0  0
    3.1162   -7.7593  -15.4831 H   0  0  0  0  0  0  0  0  0  0  0  0
    1.8694  -10.5706  -15.2874 H   0  0  0  0  0  0  0  0  0  0  0  0
    1.3976   -9.1536  -14.3200 H   0  0  0  0  0  0  0  0  0  0  0  0
   -2.1359   -7.7106  -19.4946 H   0  0  0  0  0  0  0  0  0  0  0  0
   -0.9515   -7.0243  -20.5731 H   0  0  0  0  0  0  0  0  0  0  0  0
    4.0658   -7.5815  -17.7281 H   0  0  0  0  0  0  0  0  0  0  0  0
    3.6012   -6.9033  -19.2647 H   0  0  0  0  0  0  0  0  0  0  0  0
    2.8907  -10.4896  -13.2665 H   0  0  0  0  0  0  0  0  0  0  0  0
  1  2  1  0  0  0  0
  1  3  2  0  0  0  0
  2  4  2  0  0  0  0
  3  5  1  0  0  0  0
  4  6  1  0  0  0  0
  5  6  2  0  0  0  0
  6  7  1  0  0  0  0
  7  9  1  0  0  0  0
  7 13  2  0  0  0  0
  8 10  2  0  0  0  0
  8 11  1  0  0  0  0
  8 13  1  0  0  0  0
  9 14  2  0  0  0  0
  9 15  1  0  0  0  0
 10 14  1  0  0  0  0
 10 16  1  0  0  0  0
 11 12  1  0  0  0  0
 12 17  1  0  0  0  0
  1 18  1  0  0  0  0
  2 19  1  0  0  0  0
  3 20  1  0  0  0  0
  4 21  1  0  0  0  0
  5 22  1  0  0  0  0
 11 23  1  0  0  0  0
 11 24  1  0  0  0  0
 12 25  1  0  0  0  0
 12 26  1  0  0  0  0
 15 27  1  0  0  0  0
 15 28  1  0  0  0  0
 16 29  1  0  0  0  0
 16 30  1  0  0  0  0
 17 31  1  0  0  0  0
M  END
> <HYBRID receptor title>
27_FRAG(A) > 95F(A-200)

> <HYBRID receptor filename>
data/docking/pairs/27_frag.oedu

> <HYBRID Chemgauss4 score>
-9.013162

> <HYBRID receptor title>
27_FRAG(A) > 95F(A-200)

> <HYBRID receptor filename>
data/docking/pairs/27_frag.oedu

> <Dock Type>
Hybrid

$$$$
MOL0053
  -OEChem-08212416293D

 34 35  0     0  0  0  0  0  0999 V2000
    1.9177   -8.6472  -16.1955 C   0  0  0  0  0  0  0  0  0  0  0  0
    1.0909   -7.2183  -18.2939 C   0  0  0  0  0  0  0  0  0  0  0  0
    0.5752   -8.4777  -16.4556 C   0  0  0  0  0  0  0  0  0  0  0  0
    2.4332   -7.3878  -18.0336 C   0  0  0  0  0  0  0  0  0  0  0  0
   -1.3236  -10.0398  -16.1221 C   0  0  0  0  0  0  0  0  0  0  0  0
   -0.7365   -8.4706  -14.3244 C   0  0  0  0  0  0  0  0  0  0  0  0
   -2.6971   -9.3714  -16.1832 C   0  0  0  0  0  0  0  0  0  0  0  0
   -2.1228   -7.8504  -14.4593 C   0  0  0  0  0  0  0  0  0  0  0  0
    2.3974   -9.4417  -15.0280 C   0  0  0  0  0  0  0  0  0  0  0  0
    0.6112   -6.4237  -19.4614 C   0  0  0  0  0  0  0  0  0  0  0  0
    4.6706   -6.3642  -18.4463 C   0  0  0  0  0  0  0  0  0  0  0  0
    0.1378   -7.7600  -17.5099 N   0  0  0  0  0  0  0  0  0  0  0  0
    2.8706   -8.1054  -16.9792 N   0  0  0  0  0  0  0  0  0  0  0  0
   -0.3597   -9.0613  -15.6094 N   0  0  0  0  0  0  0  0  0  0  0  0
    3.3839   -6.7942  -18.8940 N   0  0  0  0  0  0  0  0  0  0  0  0
   -3.0609   -8.8332  -14.9086 O   0  0  0  0  0  0  0  0  0  0  0  0
   -1.3657  -10.8921  -15.4437 H   0  0  0  0  0  0  0  0  0  0  0  0
   -1.0414  -10.3831  -17.1158 H   0  0  0  0  0  0  0  0  0  0  0  0
   -0.0211   -7.7045  -14.0196 H   0  0  0  0  0  0  0  0  0  0  0  0
   -0.7623   -9.2543  -13.5629 H   0  0  0  0  0  0  0  0  0  0  0  0
   -2.7222   -8.5775  -16.9393 H   0  0  0  0  0  0  0  0  0  0  0  0
   -3.4553  -10.1113  -16.4593 H   0  0  0  0  0  0  0  0  0  0  0  0
   -2.4626   -7.4880  -13.4869 H   0  0  0  0  0  0  0  0  0  0  0  0
   -2.1190   -7.0020  -15.1494 H   0  0  0  0  0  0  0  0  0  0  0  0
    2.5308  -10.4989  -15.2925 H   0  0  0  0  0  0  0  0  0  0  0  0
    1.6759   -9.4096  -14.2009 H   0  0  0  0  0  0  0  0  0  0  0  0
    3.3566   -9.0500  -14.6677 H   0  0  0  0  0  0  0  0  0  0  0  0
    0.4881   -7.0558  -20.3506 H   0  0  0  0  0  0  0  0  0  0  0  0
    1.3278   -5.6357  -19.7283 H   0  0  0  0  0  0  0  0  0  0  0  0
   -0.3532   -5.9536  -19.2330 H   0  0  0  0  0  0  0  0  0  0  0  0
    4.7918   -6.5622  -17.3774 H   0  0  0  0  0  0  0  0  0  0  0  0
    5.4568   -6.8929  -18.9925 H   0  0  0  0  0  0  0  0  0  0  0  0
    4.7920   -5.2916  -18.6206 H   0  0  0  0  0  0  0  0  0  0  0  0
    3.1169   -6.6824  -19.8524 H   0  0  0  0  0  0  0  0  0  0  0  0
  1  3  1  0  0  0  0
  1  9  1  0  0  0  0
  1 13  2  0  0  0  0
  2  4  2  0  0  0  0
  2 10  1  0  0  0  0
  2 12  1  0  0  0  0
  3 12  2  0  0  0  0
  3 14  1  0  0  0  0
  4 13  1  0  0  0  0
  4 15  1  0  0  0  0
  5  7  1  0  0  0  0
  5 14  1  0  0  0  0
  6  8  1  0  0  0  0
  6 14  1  0  0  0  0
  7 16  1  0  0  0  0
  8 16  1  0  0  0  0
 11 15  1  0  0  0  0
  5 17  1  0  0  0  0
  5 18  1  0  0  0  0
  6 19  1  0  0  0  0
  6 20  1  0  0  0  0
  7 21  1  0  0  0  0
  7 22  1  0  0  0  0
  8 23  1  0  0  0  0
  8 24  1  0  0  0  0
  9 25  1  0  0  0  0
  9 26  1  0  0  0  0
  9 27  1  0  0  0  0
 10 28  1  0  0  0  0
 10 29  1  0  0  0  0
 10 30  1  0  0  0  0
 11 31  1  0  0  0  0
 11 32  1  0  0  0  0
 11 33  1  0  0  0  0
 15 34  1  0  0  0  0
M  END
> <HYBRID receptor title>
27_FRAG(A) > 95F(A-200)

> <HYBRID receptor filename>
data/docking/pairs/27_frag.oedu

> <HYBRID Chemgauss4 score>
-8.574060

> <HYBRID receptor title>
27_FRAG(A) > 95F(A-200)

> <HYBRID receptor filename>
data/docking/pairs/27_frag.oedu

> <Dock Type>
Hybrid

$$$$
MOL0052
  -OEChem-08212416293D

 25 26  0     0  0  0  0  0  0999 V2000
    0.0604   -8.6344  -16.4996 C   0  0  0  0  0  0  0  0  0  0  0  0
    2.1084   -9.1956  -14.8811 C   0  0  0  0  0  0  0  0  0  0  0  0
    1.3576   -8.3575  -16.8721 C   0  0  0  0  0  0  0  0  0  0  0  0
    0.8111   -9.4726  -14.5083 C   0  0  0  0  0  0  0  0  0  0  0  0
   -2.0409   -7.3974  -16.9593 C   0  0  0  0  0  0  0  0  0  0  0  0
   -1.3425   -9.1812  -18.4984 C   0  0  0  0  0  0  0  0  0  0  0  0
   -3.3103   -8.2044  -16.6862 C   0  0  0  0  0  0  0  0  0  0  0  0
   -2.6272   -9.9294  -18.1603 C   0  0  0  0  0  0  0  0  0  0  0  0
   -0.2363   -9.1969  -15.3113 N   0  0  0  0  0  0  0  0  0  0  0  0
    2.4051   -8.6330  -16.0691 N   0  0  0  0  0  0  0  0  0  0  0  0
   -0.9835   -8.3287  -17.3642 N   0  0  0  0  0  0  0  0  0  0  0  0
    3.1699   -9.5055  -14.0014 N   0  0  0  0  0  0  0  0  0  0  0  0
   -3.6627   -9.0022  -17.8203 O   0  0  0  0  0  0  0  0  0  0  0  0
    1.7902   -7.6415  -18.3714 Cl  0  0  0  0  0  0  0  0  0  0  0  0
    0.3776  -10.1936  -13.0117 Cl  0  0  0  0  0  0  0  0  0  0  0  0
   -2.2277   -6.6919  -17.7690 H   0  0  0  0  0  0  0  0  0  0  0  0
   -1.7576   -6.8501  -16.0620 H   0  0  0  0  0  0  0  0  0  0  0  0
   -0.5488   -9.8978  -18.7177 H   0  0  0  0  0  0  0  0  0  0  0  0
   -1.5082   -8.5556  -19.3794 H   0  0  0  0  0  0  0  0  0  0  0  0
   -3.1938   -8.8471  -15.8054 H   0  0  0  0  0  0  0  0  0  0  0  0
   -4.1443   -7.5237  -16.4876 H   0  0  0  0  0  0  0  0  0  0  0  0
   -2.9641  -10.4984  -19.0292 H   0  0  0  0  0  0  0  0  0  0  0  0
   -2.4783  -10.6337  -17.3369 H   0  0  0  0  0  0  0  0  0  0  0  0
    2.9584   -9.8736  -13.0976 H   0  0  0  0  0  0  0  0  0  0  0  0
    4.1013   -9.2529  -14.2576 H   0  0  0  0  0  0  0  0  0  0  0  0
  1  3  1  0  0  0  0
  1  9  2  0  0  0  0
  1 11  1  0  0  0  0
  2  4  2  0  0  0  0
  2 10  1  0  0  0  0
  2 12  1  0  0  0  0
  3 10  2  0  0  0  0
  3 14  1  0  0  0  0
  4  9  1  0  0  0  0
  4 15  1  0  0  0  0
  5  7  1  0  0  0  0
  5 11  1  0  0  0  0
  6  8  1  0  0  0  0
  6 11  1  0  0  0  0
  7 13  1  0  0  0  0
  8 13  1  0  0  0  0
  5 16  1  0  0  0  0
  5 17  1  0  0  0  0
  6 18  1  0  0  0  0
  6 19  1  0  0  0  0
  7 20  1  0  0  0  0
  7 21  1  0  0  0  0
  8 22  1  0  0  0  0
  8 23  1  0  0  0  0
 12 24  1  0  0  0  0
 12 25  1  0  0  0  0
M  END
> <HYBRID receptor title>
27_FRAG(A) > 95F(A-200)

> <HYBRID receptor filename>
data/docking/pairs/27_frag.oedu

> <HYBRID Chemgauss4 score>
-8.336264

> <HYBRID receptor title>
27_FRAG(A) > 95F(A-200)

> <HYBRID receptor filename>
data/docking/pairs/27_frag.oedu

> <Dock Type>
Hybrid

$$$$
MOL0055
  -OEChem-08212416293D

 28 29  0     0  0  0  0  0  0999 V2000
    1.5348   -8.5978  -16.1875 C   0  0  0  0  0  0  0  0  0  0  0  0
    0.8861   -7.2408  -18.3936 C   0  0  0  0  0  0  0  0  0  0  0  0
    0.2223   -8.4799  -16.5895 C   0  0  0  0  0  0  0  0  0  0  0  0
    2.1988   -7.3586  -17.9916 C   0  0  0  0  0  0  0  0  0  0  0  0
   -1.9978   -9.5769  -16.4327 C   0  0  0  0  0  0  0  0  0  0  0  0
   -0.8475   -8.9058  -14.3676 C   0  0  0  0  0  0  0  0  0  0  0  0
   -3.1334   -8.6302  -16.0436 C   0  0  0  0  0  0  0  0  0  0  0  0
   -2.0149   -7.9745  -14.0602 C   0  0  0  0  0  0  0  0  0  0  0  0
    0.5054   -6.4880  -19.6235 C   0  0  0  0  0  0  0  0  0  0  0  0
    2.5466   -8.0395  -16.8810 N   0  0  0  0  0  0  0  0  0  0  0  0
   -0.1256   -7.7989  -17.7000 N   0  0  0  0  0  0  0  0  0  0  0  0
   -0.7607   -9.0867  -15.8173 N   0  0  0  0  0  0  0  0  0  0  0  0
    3.2145   -6.7499  -18.7629 N   0  0  0  0  0  0  0  0  0  0  0  0
   -3.2230   -8.4965  -14.6221 O   0  0  0  0  0  0  0  0  0  0  0  0
    1.5686   -5.9450  -20.2868 F   0  0  0  0  0  0  0  0  0  0  0  0
   -0.3338   -5.4440  -19.3612 F   0  0  0  0  0  0  0  0  0  0  0  0
   -0.1411   -7.2536  -20.5518 F   0  0  0  0  0  0  0  0  0  0  0  0
    1.8255   -9.1420  -15.2962 H   0  0  0  0  0  0  0  0  0  0  0  0
   -2.2149  -10.5765  -16.0560 H   0  0  0  0  0  0  0  0  0  0  0  0
   -1.9083   -9.6114  -17.5171 H   0  0  0  0  0  0  0  0  0  0  0  0
    0.0752   -8.4795  -13.9692 H   0  0  0  0  0  0  0  0  0  0  0  0
   -1.0228   -9.8755  -13.8947 H   0  0  0  0  0  0  0  0  0  0  0  0
   -3.0034   -7.6413  -16.4994 H   0  0  0  0  0  0  0  0  0  0  0  0
   -4.0872   -9.0326  -16.3996 H   0  0  0  0  0  0  0  0  0  0  0  0
   -2.1562   -7.9019  -12.9798 H   0  0  0  0  0  0  0  0  0  0  0  0
   -1.8366   -6.9654  -14.4424 H   0  0  0  0  0  0  0  0  0  0  0  0
    2.9668   -6.2904  -19.6140 H   0  0  0  0  0  0  0  0  0  0  0  0
    4.1683   -6.8815  -18.4986 H   0  0  0  0  0  0  0  0  0  0  0  0
  1  3  1  0  0  0  0
  1 10  2  0  0  0  0
  2  4  2  0  0  0  0
  2  9  1  0  0  0  0
  2 11  1  0  0  0  0
  3 11  2  0  0  0  0
  3 12  1  0  0  0  0
  4 10  1  0  0  0  0
  4 13  1  0  0  0  0
  5  7  1  0  0  0  0
  5 12  1  0  0  0  0
  6  8  1  0  0  0  0
  6 12  1  0  0  0  0
  7 14  1  0  0  0  0
  8 14  1  0  0  0  0
  9 15  1  0  0  0  0
  9 16  1  0  0  0  0
  9 17  1  0  0  0  0
  1 18  1  0  0  0  0
  5 19  1  0  0  0  0
  5 20  1  0  0  0  0
  6 21  1  0  0  0  0
  6 22  1  0  0  0  0
  7 23  1  0  0  0  0
  7 24  1  0  0  0  0
  8 25  1  0  0  0  0
  8 26  1  0  0  0  0
 13 27  1  0  0  0  0
 13 28  1  0  0  0  0
M  END
> <HYBRID receptor title>
27_FRAG(A) > 95F(A-200)

> <HYBRID receptor filename>
data/docking/pairs/27_frag.oedu

> <HYBRID Chemgauss4 score>
-8.134569

> <HYBRID receptor title>
27_FRAG(A) > 95F(A-200)

> <HYBRID receptor filename>
data/docking/pairs/27_frag.oedu

> <Dock Type>
Hybrid

$$$$
MOL0046
  -OEChem-08212416293D

 28 29  0     0  0  0  0  0  0999 V2000
    1.0087   -6.8997  -18.1988 C   0  0  0  0  0  0  0  0  0  0  0  0
    0.5283   -8.1957  -16.3764 C   0  0  0  0  0  0  0  0  0  0  0  0
    2.3546   -7.1151  -17.9972 C   0  0  0  0  0  0  0  0  0  0  0  0
    1.8743   -8.4111  -16.1750 C   0  0  0  0  0  0  0  0  0  0  0  0
   -1.4100   -9.7024  -16.0169 C   0  0  0  0  0  0  0  0  0  0  0  0
   -0.7094   -8.2019  -14.2014 C   0  0  0  0  0  0  0  0  0  0  0  0
   -2.7614   -8.9876  -16.0132 C   0  0  0  0  0  0  0  0  0  0  0  0
   -2.0776   -7.5328  -14.2722 C   0  0  0  0  0  0  0  0  0  0  0  0
    0.5071   -6.0591  -19.3237 C   0  0  0  0  0  0  0  0  0  0  0  0
    0.0714   -7.4359  -17.3923 N   0  0  0  0  0  0  0  0  0  0  0  0
    2.8115   -7.8747  -16.9813 N   0  0  0  0  0  0  0  0  0  0  0  0
   -0.3966   -8.7704  -15.5133 N   0  0  0  0  0  0  0  0  0  0  0  0
    3.2874   -6.5249  -18.8790 N   0  0  0  0  0  0  0  0  0  0  0  0
   -3.0632   -8.4717  -14.7134 O   0  0  0  0  0  0  0  0  0  0  0  0
    1.4983   -5.5420  -20.1084 F   0  0  0  0  0  0  0  0  0  0  0  0
   -0.2169   -4.9846  -18.8941 F   0  0  0  0  0  0  0  0  0  0  0  0
   -0.3131   -6.7333  -20.1833 F   0  0  0  0  0  0  0  0  0  0  0  0
    2.5096   -9.3691  -14.8997 Cl  0  0  0  0  0  0  0  0  0  0  0  0
   -1.4581  -10.5706  -15.3595 H   0  0  0  0  0  0  0  0  0  0  0  0
   -1.1736  -10.0283  -17.0283 H   0  0  0  0  0  0  0  0  0  0  0  0
    0.0415   -7.4683  -13.9022 H   0  0  0  0  0  0  0  0  0  0  0  0
   -0.7359   -9.0043  -13.4596 H   0  0  0  0  0  0  0  0  0  0  0  0
   -2.7850   -8.1734  -16.7475 H   0  0  0  0  0  0  0  0  0  0  0  0
   -3.5531   -9.6943  -16.2815 H   0  0  0  0  0  0  0  0  0  0  0  0
   -2.3717   -7.1854  -13.2796 H   0  0  0  0  0  0  0  0  0  0  0  0
   -2.0684   -6.6669  -14.9402 H   0  0  0  0  0  0  0  0  0  0  0  0
    2.9518   -6.0058  -19.6633 H   0  0  0  0  0  0  0  0  0  0  0  0
    4.2587   -6.7254  -18.7627 H   0  0  0  0  0  0  0  0  0  0  0  0
  1  3  2  0  0  0  0
  1  9  1  0  0  0  0
  1 10  1  0  0  0  0
  2  4  1  0  0  0  0
  2 10  2  0  0  0  0
  2 12  1  0  0  0  0
  3 11  1  0  0  0  0
  3 13  1  0  0  0  0
  4 11  2  0  0  0  0
  4 18  1  0  0  0  0
  5  7  1  0  0  0  0
  5 12  1  0  0  0  0
  6  8  1  0  0  0  0
  6 12  1  0  0  0  0
  7 14  1  0  0  0  0
  8 14  1  0  0  0  0
  9 15  1  0  0  0  0
  9 16  1  0  0  0  0
  9 17  1  0  0  0  0
  5 19  1  0  0  0  0
  5 20  1  0  0  0  0
  6 21  1  0  0  0  0
  6 22  1  0  0  0  0
  7 23  1  0  0  0  0
  7 24  1  0  0  0  0
  8 25  1  0  0  0  0
  8 26  1  0  0  0  0
 13 27  1  0  0  0  0
 13 28  1  0  0  0  0
M  END
> <HYBRID receptor title>
27_FRAG(A) > 95F(A-200)

> <HYBRID receptor filename>
data/docking/pairs/27_frag.oedu

> <HYBRID Chemgauss4 score>
-7.945908

> <HYBRID receptor title>
27_FRAG(A) > 95F(A-200)

> <HYBRID receptor filename>
data/docking/pairs/27_frag.oedu

> <Dock Type>
Hybrid

$$$$
MOL0051
  -OEChem-08212416293D

 34 35  0     0  0  0  0  0  0999 V2000
   -2.0920   -7.6209  -17.2120 C   0  0  0  0  0  0  0  0  0  0  0  0
   -3.7051   -9.2169  -16.9254 C   0  0  0  0  0  0  0  0  0  0  0  0
   -1.1900   -8.4105  -16.5329 C   0  0  0  0  0  0  0  0  0  0  0  0
   -2.8028  -10.0065  -16.2463 C   0  0  0  0  0  0  0  0  0  0  0  0
    0.7080   -7.0398  -17.3547 C   0  0  0  0  0  0  0  0  0  0  0  0
    1.0740   -8.5876  -15.4816 C   0  0  0  0  0  0  0  0  0  0  0  0
    1.7521   -7.8316  -18.1423 C   0  0  0  0  0  0  0  0  0  0  0  0
    2.0922   -9.3310  -16.3392 C   0  0  0  0  0  0  0  0  0  0  0  0
   -5.1127   -9.6522  -17.1567 C   0  0  0  0  0  0  0  0  0  0  0  0
   -3.0956  -12.4490  -16.5733 C   0  0  0  0  0  0  0  0  0  0  0  0
   -3.7530  -11.3808  -14.4113 C   0  0  0  0  0  0  0  0  0  0  0  0
   -3.3655   -8.0096  -17.4206 N   0  0  0  0  0  0  0  0  0  0  0  0
   -1.5296   -9.6177  -16.0376 N   0  0  0  0  0  0  0  0  0  0  0  0
    0.1048   -7.9356  -16.3633 N   0  0  0  0  0  0  0  0  0  0  0  0
   -3.2205  -11.2631  -15.7523 N   0  0  0  0  0  0  0  0  0  0  0  0
    2.7095   -8.4299  -17.2637 O   0  0  0  0  0  0  0  0  0  0  0  0
   -1.8303   -6.6484  -17.6129 H   0  0  0  0  0  0  0  0  0  0  0  0
    1.1946   -6.2106  -16.8408 H   0  0  0  0  0  0  0  0  0  0  0  0
   -0.0441   -6.6494  -18.0380 H   0  0  0  0  0  0  0  0  0  0  0  0
    0.5809   -9.2906  -14.8075 H   0  0  0  0  0  0  0  0  0  0  0  0
    1.5868   -7.8271  -14.8871 H   0  0  0  0  0  0  0  0  0  0  0  0
    1.2835   -8.6071  -18.7599 H   0  0  0  0  0  0  0  0  0  0  0  0
    2.2941   -7.1594  -18.8151 H   0  0  0  0  0  0  0  0  0  0  0  0
    2.8786   -9.7453  -15.7049 H   0  0  0  0  0  0  0  0  0  0  0  0
    1.6313  -10.1596  -16.8842 H   0  0  0  0  0  0  0  0  0  0  0  0
   -5.7693   -9.3310  -16.3375 H   0  0  0  0  0  0  0  0  0  0  0  0
   -5.1870  -10.7463  -17.2133 H   0  0  0  0  0  0  0  0  0  0  0  0
   -5.4942   -9.2290  -18.0941 H   0  0  0  0  0  0  0  0  0  0  0  0
   -3.4645  -13.3283  -16.0374 H   0  0  0  0  0  0  0  0  0  0  0  0
   -3.6720  -12.3326  -17.4954 H   0  0  0  0  0  0  0  0  0  0  0  0
   -2.0483  -12.6146  -16.8406 H   0  0  0  0  0  0  0  0  0  0  0  0
   -4.0247  -12.4180  -14.1951 H   0  0  0  0  0  0  0  0  0  0  0  0
   -3.0095  -11.0529  -13.6793 H   0  0  0  0  0  0  0  0  0  0  0  0
   -4.6429  -10.7548  -14.3021 H   0  0  0  0  0  0  0  0  0  0  0  0
  1  3  1  0  0  0  0
  1 12  2  0  0  0  0
  2  4  2  0  0  0  0
  2  9  1  0  0  0  0
  2 12  1  0  0  0  0
  3 13  2  0  0  0  0
  3 14  1  0  0  0  0
  4 13  1  0  0  0  0
  4 15  1  0  0  0  0
  5  7  1  0  0  0  0
  5 14  1  0  0  0  0
  6  8  1  0  0  0  0
  6 14  1  0  0  0  0
  7 16  1  0  0  0  0
  8 16  1  0  0  0  0
 10 15  1  0  0  0  0
 11 15  1  0  0  0  0
  1 17  1  0  0  0  0
  5 18  1  0  0  0  0
  5 19  1  0  0  0  0
  6 20  1  0  0  0  0
  6 21  1  0  0  0  0
  7 22  1  0  0  0  0
  7 23  1  0  0  0  0
  8 24  1  0  0  0  0
  8 25  1  0  0  0  0
  9 26  1  0  0  0  0
  9 27  1  0  0  0  0
  9 28  1  0  0  0  0
 10 29  1  0  0  0  0
 10 30  1  0  0  0  0
 10 31  1  0  0  0  0
 11 32  1  0  0  0  0
 11 33  1  0  0  0  0
 11 34  1  0  0  0  0
M  END
> <HYBRID receptor title>
27_FRAG(A) > 95F(A-200)

> <HYBRID receptor filename>
data/docking/pairs/27_frag.oedu

> <HYBRID Chemgauss4 score>
-7.539389

> <HYBRID receptor title>
27_FRAG(A) > 95F(A-200)

> <HYBRID receptor filename>
data/docking/pairs/27_frag.oedu

> <Dock Type>
Hybrid

$$$$
MOL0047
  -OEChem-08212416293D

 38 40  0     0  0  0  0  0  0999 V2000
    0.3251   -8.7678  -16.2986 C   0  0  0  0  0  0  0  0  0  0  0  0
    0.7707   -7.4392  -18.1063 C   0  0  0  0  0  0  0  0  0  0  0  0
    1.6754   -8.8839  -16.0510 C   0  0  0  0  0  0  0  0  0  0  0  0
    2.1212   -7.5554  -17.8585 C   0  0  0  0  0  0  0  0  0  0  0  0
   -1.5078  -10.4144  -16.0054 C   0  0  0  0  0  0  0  0  0  0  0  0
   -0.9822   -8.8707  -14.1672 C   0  0  0  0  0  0  0  0  0  0  0  0
   -0.4622   -7.3055  -20.2525 C   0  0  0  0  0  0  0  0  0  0  0  0
    0.0784   -5.2437  -18.9748 C   0  0  0  0  0  0  0  0  0  0  0  0
   -2.9076   -9.8013  -16.0480 C   0  0  0  0  0  0  0  0  0  0  0  0
   -2.3929   -8.3043  -14.2848 C   0  0  0  0  0  0  0  0  0  0  0  0
   -0.4145   -6.4521  -21.5149 C   0  0  0  0  0  0  0  0  0  0  0  0
    0.0945   -4.5052  -20.3082 C   0  0  0  0  0  0  0  0  0  0  0  0
   -0.1517   -8.0435  -17.3304 N   0  0  0  0  0  0  0  0  0  0  0  0
    2.5978   -8.2798  -16.8270 N   0  0  0  0  0  0  0  0  0  0  0  0
   -0.5838   -9.4113  -15.4676 N   0  0  0  0  0  0  0  0  0  0  0  0
    0.3295   -6.6751  -19.1910 N   0  0  0  0  0  0  0  0  0  0  0  0
    2.1216   -9.6564  -14.9545 N   0  0  0  0  0  0  0  0  0  0  0  0
   -3.2909   -9.3123  -14.7593 O   0  0  0  0  0  0  0  0  0  0  0  0
   -0.8075   -5.1113  -21.2319 O   0  0  0  0  0  0  0  0  0  0  0  0
    3.3370   -6.8082  -18.8130 Cl  0  0  0  0  0  0  0  0  0  0  0  0
   -1.5139  -11.2854  -15.3498 H   0  0  0  0  0  0  0  0  0  0  0  0
   -1.2136  -10.7196  -17.0081 H   0  0  0  0  0  0  0  0  0  0  0  0
   -0.2982   -8.0842  -13.8426 H   0  0  0  0  0  0  0  0  0  0  0  0
   -0.9747   -9.6746  -13.4266 H   0  0  0  0  0  0  0  0  0  0  0  0
   -1.5048   -7.4007  -19.9131 H   0  0  0  0  0  0  0  0  0  0  0  0
   -0.0880   -8.3149  -20.4763 H   0  0  0  0  0  0  0  0  0  0  0  0
    0.8315   -4.8085  -18.3023 H   0  0  0  0  0  0  0  0  0  0  0  0
   -0.9070   -5.1224  -18.4998 H   0  0  0  0  0  0  0  0  0  0  0  0
   -2.9663   -8.9894  -16.7827 H   0  0  0  0  0  0  0  0  0  0  0  0
   -3.6353  -10.5640  -16.3431 H   0  0  0  0  0  0  0  0  0  0  0  0
   -2.7456   -7.9819  -13.3029 H   0  0  0  0  0  0  0  0  0  0  0  0
   -2.4250   -7.4384  -14.9522 H   0  0  0  0  0  0  0  0  0  0  0  0
    0.5856   -6.4576  -21.9647 H   0  0  0  0  0  0  0  0  0  0  0  0
   -1.1107   -6.8533  -22.2585 H   0  0  0  0  0  0  0  0  0  0  0  0
   -0.2265   -3.4690  -20.1605 H   0  0  0  0  0  0  0  0  0  0  0  0
    1.1025   -4.4773  -20.7396 H   0  0  0  0  0  0  0  0  0  0  0  0
    1.4461  -10.0642  -14.3430 H   0  0  0  0  0  0  0  0  0  0  0  0
    3.0985   -9.6911  -14.7522 H   0  0  0  0  0  0  0  0  0  0  0  0
  1  3  2  0  0  0  0
  1 13  1  0  0  0  0
  1 15  1  0  0  0  0
  2  4  1  0  0  0  0
  2 13  2  0  0  0  0
  2 16  1  0  0  0  0
  3 14  1  0  0  0  0
  3 17  1  0  0  0  0
  4 14  2  0  0  0  0
  4 20  1  0  0  0  0
  5  9  1  0  0  0  0
  5 15  1  0  0  0  0
  6 10  1  0  0  0  0
  6 15  1  0  0  0  0
  7 11  1  0  0  0  0
  7 16  1  0  0  0  0
  8 12  1  0  0  0  0
  8 16  1  0  0  0  0
  9 18  1  0  0  0  0
 10 18  1  0  0  0  0
 11 19  1  0  0  0  0
 12 19  1  0  0  0  0
  5 21  1  0  0  0  0
  5 22  1  0  0  0  0
  6 23  1  0  0  0  0
  6 24  1  0  0  0  0
  7 25  1  0  0  0  0
  7 26  1  0  0  0  0
  8 27  1  0  0  0  0
  8 28  1  0  0  0  0
  9 29  1  0  0  0  0
  9 30  1  0  0  0  0
 10 31  1  0  0  0  0
 10 32  1  0  0  0  0
 11 33  1  0  0  0  0
 11 34  1  0  0  0  0
 12 35  1  0  0  0  0
 12 36  1  0  0  0  0
 17 37  1  0  0  0  0
 17 38  1  0  0  0  0
M  END
> <HYBRID receptor title>
27_FRAG(A) > 95F(A-200)

> <HYBRID receptor filename>
data/docking/pairs/27_frag.oedu

> <HYBRID Chemgauss4 score>
-7.010816

> <HYBRID receptor title>
27_FRAG(A) > 95F(A-200)

> <HYBRID receptor filename>
data/docking/pairs/27_frag.oedu

> <Dock Type>
Hybrid

$$$$
MOL0054
  -OEChem-08212416293D

 36 37  0     0  0  0  0  0  0999 V2000
   -0.6978   -8.3270  -17.5131 C   0  0  0  0  0  0  0  0  0  0  0  0
    1.4025   -9.4041  -16.2651 C   0  0  0  0  0  0  0  0  0  0  0  0
   -0.8473   -9.4124  -16.6774 C   0  0  0  0  0  0  0  0  0  0  0  0
    1.5517   -8.3189  -17.1008 C   0  0  0  0  0  0  0  0  0  0  0  0
    3.1767   -6.6813  -18.0997 C   0  0  0  0  0  0  0  0  0  0  0  0
   -2.3800  -11.3534  -16.8430 C   0  0  0  0  0  0  0  0  0  0  0  0
   -2.9475   -9.4146  -15.3956 C   0  0  0  0  0  0  0  0  0  0  0  0
   -3.8785  -11.5804  -17.0074 C   0  0  0  0  0  0  0  0  0  0  0  0
   -4.4142   -9.7507  -15.6397 C   0  0  0  0  0  0  0  0  0  0  0  0
   -1.8599   -7.7118  -18.2168 C   0  0  0  0  0  0  0  0  0  0  0  0
    2.5644  -10.0188  -15.5603 C   0  0  0  0  0  0  0  0  0  0  0  0
    4.6567   -6.3994  -18.0340 C   0  0  0  0  0  0  0  0  0  0  0  0
    0.2006   -9.9703  -16.0382 N   0  0  0  0  0  0  0  0  0  0  0  0
    0.5039   -7.7610  -17.7400 N   0  0  0  0  0  0  0  0  0  0  0  0
   -2.1212   -9.9552  -16.4836 N   0  0  0  0  0  0  0  0  0  0  0  0
    2.8248   -7.7712  -17.2982 N   0  0  0  0  0  0  0  0  0  0  0  0
    2.4353   -5.9887  -18.7898 O   0  0  0  0  0  0  0  0  0  0  0  0
   -4.5836  -11.1518  -15.8449 O   0  0  0  0  0  0  0  0  0  0  0  0
   -1.9988  -12.0036  -16.0451 H   0  0  0  0  0  0  0  0  0  0  0  0
   -1.8662  -11.6166  -17.7751 H   0  0  0  0  0  0  0  0  0  0  0  0
   -2.8281   -8.3274  -15.3197 H   0  0  0  0  0  0  0  0  0  0  0  0
   -2.6242   -9.8627  -14.4473 H   0  0  0  0  0  0  0  0  0  0  0  0
   -4.2682  -11.0591  -17.8900 H   0  0  0  0  0  0  0  0  0  0  0  0
   -4.0776  -12.6484  -17.1429 H   0  0  0  0  0  0  0  0  0  0  0  0
   -5.0085   -9.4680  -14.7647 H   0  0  0  0  0  0  0  0  0  0  0  0
   -4.8147   -9.1998  -16.4993 H   0  0  0  0  0  0  0  0  0  0  0  0
   -2.3170   -6.9171  -17.6128 H   0  0  0  0  0  0  0  0  0  0  0  0
   -2.6454   -8.4538  -18.4126 H   0  0  0  0  0  0  0  0  0  0  0  0
   -1.5422   -7.2812  -19.1744 H   0  0  0  0  0  0  0  0  0  0  0  0
    2.7280   -9.5530  -14.5797 H   0  0  0  0  0  0  0  0  0  0  0  0
    3.4920   -9.8883  -16.1331 H   0  0  0  0  0  0  0  0  0  0  0  0
    2.3960  -11.0924  -15.4112 H   0  0  0  0  0  0  0  0  0  0  0  0
    5.1806   -6.9630  -18.8110 H   0  0  0  0  0  0  0  0  0  0  0  0
    4.8372   -5.3326  -18.1918 H   0  0  0  0  0  0  0  0  0  0  0  0
    5.0435   -6.6843  -17.0514 H   0  0  0  0  0  0  0  0  0  0  0  0
    3.5929   -8.2236  -16.7940 H   0  0  0  0  0  0  0  0  0  0  0  0
  1  3  1  0  0  0  0
  1 10  1  0  0  0  0
  1 14  2  0  0  0  0
  2  4  2  0  0  0  0
  2 11  1  0  0  0  0
  2 13  1  0  0  0  0
  3 13  2  0  0  0  0
  3 15  1  0  0  0  0
  4 14  1  0  0  0  0
  4 16  1  0  0  0  0
  5 12  1  0  0  0  0
  5 16  1  0  0  0  0
  5 17  2  0  0  0  0
  6  8  1  0  0  0  0
  6 15  1  0  0  0  0
  7  9  1  0  0  0  0
  7 15  1  0  0  0  0
  8 18  1  0  0  0  0
  9 18  1  0  0  0  0
  6 19  1  0  0  0  0
  6 20  1  0  0  0  0
  7 21  1  0  0  0  0
  7 22  1  0  0  0  0
  8 23  1  0  0  0  0
  8 24  1  0  0  0  0
  9 25  1  0  0  0  0
  9 26  1  0  0  0  0
 10 27  1  0  0  0  0
 10 28  1  0  0  0  0
 10 29  1  0  0  0  0
 11 30  1  0  0  0  0
 11 31  1  0  0  0  0
 11 32  1  0  0  0  0
 12 33  1  0  0  0  0
 12 34  1  0  0  0  0
 12 35  1  0  0  0  0
 16 36  1  0  0  0  0
M  END
> <HYBRID receptor title>
27_FRAG(A) > 95F(A-200)

> <HYBRID receptor filename>
data/docking/pairs/27_frag.oedu

> <HYBRID Chemgauss4 score>
-6.221269

> <HYBRID receptor title>
27_FRAG(A) > 95F(A-200)

> <HYBRID receptor filename>
data/docking/pairs/27_frag.oedu

> <Dock Type>
Hybrid

$$$$
