molecule_1
  -OEChem-08062404073D

 20 21  0     0  0  0  0  0  0999 V2000
    3.8087   13.0239   44.8090 C   0  0  0  0  0  0  0  0  0  0  0  0
    3.3865   13.9140   43.8428 C   0  0  0  0  0  0  0  0  0  0  0  0
    4.5953   11.9831   44.3597 C   0  0  0  0  0  0  0  0  0  0  0  0
    4.4743   12.7483   42.2222 C   0  0  0  0  0  0  0  0  0  0  0  0
    5.0812   13.8280   39.9550 C   0  0  0  0  0  0  0  0  0  0  0  0
    3.8546   13.0012   39.7264 C   0  0  0  0  0  0  0  0  0  0  0  0
    4.8450   12.5943   40.7851 C   0  0  0  0  0  0  0  0  0  0  0  0
    3.4396   13.1762   46.2435 C   0  0  0  0  0  0  0  0  0  0  0  0
    3.7018   13.8061   42.5353 N   0  0  0  0  0  0  0  0  0  0  0  0
    4.9486   11.8137   43.0685 N   0  0  0  0  0  0  0  0  0  0  0  0
    2.4001   15.2745   44.2076 Cl  0  0  0  0  0  0  0  0  0  0  0  0
    5.2163   10.7728   45.4118 Cl  0  0  0  0  0  0  0  0  0  0  0  0
    5.8655   13.7843   39.2087 H   0  0  0  0  0  0  0  0  0  0  0  0
    4.9525   14.8036   40.4084 H   0  0  0  0  0  0  0  0  0  0  0  0
    2.9018   13.4205   40.0268 H   0  0  0  0  0  0  0  0  0  0  0  0
    3.8119   12.3995   38.8263 H   0  0  0  0  0  0  0  0  0  0  0  0
    5.4658   11.7368   40.5607 H   0  0  0  0  0  0  0  0  0  0  0  0
    2.5025   12.6512   46.4747 H   0  0  0  0  0  0  0  0  0  0  0  0
    3.2838   14.2315   46.5072 H   0  0  0  0  0  0  0  0  0  0  0  0
    4.2304   12.7718   46.8887 H   0  0  0  0  0  0  0  0  0  0  0  0
  1  2  1  0  0  0  0
  1  3  2  0  0  0  0
  1  8  1  0  0  0  0
  2  9  2  0  0  0  0
  2 11  1  0  0  0  0
  3 10  1  0  0  0  0
  3 12  1  0  0  0  0
  4  7  1  0  0  0  0
  4  9  1  0  0  0  0
  4 10  2  0  0  0  0
  5  6  1  0  0  0  0
  5  7  1  0  0  0  0
  6  7  1  0  0  0  0
  5 13  1  0  0  0  0
  5 14  1  0  0  0  0
  6 15  1  0  0  0  0
  6 16  1  0  0  0  0
  7 17  1  0  0  0  0
  8 18  1  0  0  0  0
  8 19  1  0  0  0  0
  8 20  1  0  0  0  0
M  END
> <HYBRID receptor title>
10_FRAG(A) > 4XS(A-803)

> <HYBRID receptor filename>
data/docking/pairs/10_frag.oedu

> <HYBRID Chemgauss4 score>
-6.546729

> <HYBRID receptor title>
10_FRAG(A) > 4XS(A-803)

> <HYBRID receptor filename>
data/docking/pairs/10_frag.oedu

> <Dock Type>
Hybrid

$$$$
