molecule_1
  -OEChem-08062404073D

 49 52  0     1  0  0  0  0  0999 V2000
    3.9384   12.1510   46.7171 C   0  0  0  0  0  0  0  0  0  0  0  0
    3.3400   12.9437   45.7441 C   0  0  0  0  0  0  0  0  0  0  0  0
    4.1663   12.0689   38.7606 C   0  0  0  0  0  0  0  0  0  0  0  0
    5.3589   11.2501   45.0355 C   0  0  0  0  0  0  0  0  0  0  0  0
    4.9677   11.2853   46.3647 C   0  0  0  0  0  0  0  0  0  0  0  0
    3.8038   12.8346   44.4430 C   0  0  0  0  0  0  0  0  0  0  0  0
    3.5368   11.7064   37.5875 C   0  0  0  0  0  0  0  0  0  0  0  0
    3.9220   13.3547   39.1974 C   0  0  0  0  0  0  0  0  0  0  0  0
    2.5693   13.7566   37.4146 C   0  0  0  0  0  0  0  0  0  0  0  0
    4.3524    6.0386   36.0596 C   0  0  0  0  0  0  0  0  0  0  0  0
    4.7033    8.1571   37.0378 C   0  0  0  0  0  0  0  0  0  0  0  0
    3.1184   15.1723   43.5767 C   0  0  0  0  0  0  0  0  0  0  0  0
    3.1806   13.6716   43.3898 C   0  0  1  0  0  0  0  0  0  0  0  0
    4.0553   14.5892   42.5612 C   0  0  1  0  0  0  0  0  0  0  0  0
    5.6281   10.4246   47.3822 C   0  0  0  0  0  0  0  0  0  0  0  0
    1.6822   14.6936   36.6678 C   0  0  0  0  0  0  0  0  0  0  0  0
    3.8249    4.7357   35.6067 C   0  0  0  0  0  0  0  0  0  0  0  0
    4.5977    9.4569   37.7825 C   0  0  0  0  0  0  0  0  0  0  0  0
    3.7867   14.7670   41.1064 C   0  0  0  0  0  0  0  0  0  0  0  0
    4.8012   12.0053   44.0626 N   0  0  0  0  0  0  0  0  0  0  0  0
    2.7285   12.5281   36.8860 N   0  0  0  0  0  0  0  0  0  0  0  0
    3.1262   14.2288   38.5466 N   0  0  0  0  0  0  0  0  0  0  0  0
    5.5392    6.5231   35.7609 N   0  0  0  0  0  0  0  0  0  0  0  0
    5.7442    7.7657   36.3347 N   0  0  0  0  0  0  0  0  0  0  0  0
    3.7605   10.3932   37.1060 N   0  0  0  0  0  0  0  0  0  0  0  0
    4.5062   13.7883   40.3557 O   0  0  0  0  0  0  0  0  0  0  0  0
    3.3928    7.0503   37.0587 S   0  0  0  0  0  0  0  0  0  0  0  0
    3.5967   12.2137   47.7466 H   0  0  0  0  0  0  0  0  0  0  0  0
    2.5364   13.6226   46.0079 H   0  0  0  0  0  0  0  0  0  0  0  0
    4.8104   11.3920   39.3093 H   0  0  0  0  0  0  0  0  0  0  0  0
    6.1568   10.5938   44.7018 H   0  0  0  0  0  0  0  0  0  0  0  0
    2.2288   15.6840   43.2283 H   0  0  0  0  0  0  0  0  0  0  0  0
    3.5533   15.6056   44.4700 H   0  0  0  0  0  0  0  0  0  0  0  0
    2.3282   13.2255   42.8846 H   0  0  0  0  0  0  0  0  0  0  0  0
    5.1163   14.6302   42.7797 H   0  0  0  0  0  0  0  0  0  0  0  0
    5.1235    9.4524   47.4765 H   0  0  0  0  0  0  0  0  0  0  0  0
    5.6046   10.8891   48.3785 H   0  0  0  0  0  0  0  0  0  0  0  0
    6.6771   10.2429   47.1119 H   0  0  0  0  0  0  0  0  0  0  0  0
    0.6400   14.6100   37.0033 H   0  0  0  0  0  0  0  0  0  0  0  0
    1.6876   14.4754   35.5914 H   0  0  0  0  0  0  0  0  0  0  0  0
    2.0115   15.7300   36.8135 H   0  0  0  0  0  0  0  0  0  0  0  0
    4.0693    3.9229   36.3116 H   0  0  0  0  0  0  0  0  0  0  0  0
    4.2492    4.4341   34.6337 H   0  0  0  0  0  0  0  0  0  0  0  0
    2.7285    4.7676   35.4990 H   0  0  0  0  0  0  0  0  0  0  0  0
    4.1839    9.2957   38.7834 H   0  0  0  0  0  0  0  0  0  0  0  0
    5.5826    9.9186   37.9082 H   0  0  0  0  0  0  0  0  0  0  0  0
    4.1031   15.7618   40.7518 H   0  0  0  0  0  0  0  0  0  0  0  0
    2.7153   14.6489   40.8716 H   0  0  0  0  0  0  0  0  0  0  0  0
    3.2988   10.1440   36.2551 H   0  0  0  0  0  0  0  0  0  0  0  0
  1  2  2  0  0  0  0
  1  5  1  0  0  0  0
  2  6  1  0  0  0  0
  3  7  1  0  0  0  0
  3  8  2  0  0  0  0
  4  5  2  0  0  0  0
  4 20  1  0  0  0  0
  5 15  1  0  0  0  0
  6 13  1  0  0  0  0
  6 20  2  0  0  0  0
  7 21  2  0  0  0  0
  7 25  1  0  0  0  0
  8 22  1  0  0  0  0
  8 26  1  0  0  0  0
  9 16  1  0  0  0  0
  9 21  1  0  0  0  0
  9 22  2  0  0  0  0
 10 17  1  0  0  0  0
 10 23  2  0  0  0  0
 10 27  1  0  0  0  0
 11 18  1  0  0  0  0
 11 24  2  0  0  0  0
 11 27  1  0  0  0  0
 12 13  1  0  0  0  0
 12 14  1  0  0  0  0
 13 14  1  0  0  0  0
 14 19  1  0  0  0  0
 18 25  1  0  0  0  0
 19 26  1  0  0  0  0
 23 24  1  0  0  0  0
  1 28  1  0  0  0  0
  2 29  1  0  0  0  0
  3 30  1  0  0  0  0
  4 31  1  0  0  0  0
 12 32  1  0  0  0  0
 12 33  1  0  0  0  0
 13 34  1  0  0  0  0
 14 35  1  0  0  0  0
 15 36  1  0  0  0  0
 15 37  1  0  0  0  0
 15 38  1  0  0  0  0
 16 39  1  0  0  0  0
 16 40  1  0  0  0  0
 16 41  1  0  0  0  0
 17 42  1  0  0  0  0
 17 43  1  0  0  0  0
 17 44  1  0  0  0  0
 18 45  1  0  0  0  0
 18 46  1  0  0  0  0
 19 47  1  0  0  0  0
 19 48  1  0  0  0  0
 25 49  1  0  0  0  0
M  END
> <HYBRID receptor title>
10_FRAG(A) > 4XS(A-803)

> <HYBRID receptor filename>
data/docking/pairs/10_frag.oedu

> <HYBRID Chemgauss4 score>
-6.203921

> <HYBRID receptor title>
10_FRAG(A) > 4XS(A-803)

> <HYBRID receptor filename>
data/docking/pairs/10_frag.oedu

> <Dock Type>
Hybrid

$$$$
