molecule_1
  -OEChem-08062404083D

 33 35  0     0  0  0  0  0  0999 V2000
   19.8345   12.5552   32.6065 C   0  0  0  0  0  0  0  0  0  0  0  0
   24.5248   13.9035   37.5340 C   0  0  0  0  0  0  0  0  0  0  0  0
   25.4328   14.7122   38.2174 C   0  0  0  0  0  0  0  0  0  0  0  0
   22.6928   15.0431   38.6215 C   0  0  0  0  0  0  0  0  0  0  0  0
   19.6590   15.3612   35.7485 C   0  0  0  0  0  0  0  0  0  0  0  0
   20.9502   13.8319   34.8386 C   0  0  0  0  0  0  0  0  0  0  0  0
   18.4626   16.3369   31.7298 C   0  0  0  0  0  0  0  0  0  0  0  0
   19.3572   13.8706   32.3021 C   0  0  0  0  0  0  0  0  0  0  0  0
   19.9570   14.7284   34.5268 C   0  0  0  0  0  0  0  0  0  0  0  0
   23.1547   14.0689   37.7362 C   0  0  0  0  0  0  0  0  0  0  0  0
   24.9709   15.6864   39.1027 C   0  0  0  0  0  0  0  0  0  0  0  0
   23.6007   15.8518   39.3049 C   0  0  0  0  0  0  0  0  0  0  0  0
   19.4156   14.9036   33.2151 C   0  0  0  0  0  0  0  0  0  0  0  0
   18.8094   14.1872   31.0759 C   0  0  0  0  0  0  0  0  0  0  0  0
   22.1833   13.2046   37.0057 C   0  0  0  0  0  0  0  0  0  0  0  0
   20.2215   11.4893   32.8532 N   0  0  0  0  0  0  0  0  0  0  0  0
   20.4021   14.9054   36.7604 N   0  0  0  0  0  0  0  0  0  0  0  0
   18.9759   16.1537   32.9614 N   0  0  0  0  0  0  0  0  0  0  0  0
   18.3501   15.4146   30.7545 N   0  0  0  0  0  0  0  0  0  0  0  0
   21.1775   13.9765   36.1756 N   0  0  0  0  0  0  0  0  0  0  0  0
   18.7169   13.1761   30.0864 N   0  0  0  0  0  0  0  0  0  0  0  0
   25.8432   16.4628   39.7587 F   0  0  0  0  0  0  0  0  0  0  0  0
   23.1573   16.7869   40.1551 F   0  0  0  0  0  0  0  0  0  0  0  0
   24.8940   13.1468   36.8469 H   0  0  0  0  0  0  0  0  0  0  0  0
   26.4998   14.5839   38.0609 H   0  0  0  0  0  0  0  0  0  0  0  0
   21.6272   15.1785   38.7860 H   0  0  0  0  0  0  0  0  0  0  0  0
   18.9326   16.1366   35.9474 H   0  0  0  0  0  0  0  0  0  0  0  0
   21.5028   13.1194   34.2404 H   0  0  0  0  0  0  0  0  0  0  0  0
   18.1027   17.3320   31.4989 H   0  0  0  0  0  0  0  0  0  0  0  0
   22.7154   12.4927   36.3505 H   0  0  0  0  0  0  0  0  0  0  0  0
   21.6387   12.5528   37.7112 H   0  0  0  0  0  0  0  0  0  0  0  0
   19.0978   12.2767   30.2823 H   0  0  0  0  0  0  0  0  0  0  0  0
   18.3705   13.4177   29.1841 H   0  0  0  0  0  0  0  0  0  0  0  0
  1  8  1  0  0  0  0
  1 16  3  0  0  0  0
  2  3  2  0  0  0  0
  2 10  1  0  0  0  0
  3 11  1  0  0  0  0
  4 10  2  0  0  0  0
  4 12  1  0  0  0  0
  5  9  1  0  0  0  0
  5 17  2  0  0  0  0
  6  9  2  0  0  0  0
  6 20  1  0  0  0  0
  7 18  1  0  0  0  0
  7 19  2  0  0  0  0
  8 13  1  0  0  0  0
  8 14  2  0  0  0  0
  9 13  1  0  0  0  0
 10 15  1  0  0  0  0
 11 12  2  0  0  0  0
 11 22  1  0  0  0  0
 12 23  1  0  0  0  0
 13 18  2  0  0  0  0
 14 19  1  0  0  0  0
 14 21  1  0  0  0  0
 15 20  1  0  0  0  0
 17 20  1  0  0  0  0
  2 24  1  0  0  0  0
  3 25  1  0  0  0  0
  4 26  1  0  0  0  0
  5 27  1  0  0  0  0
  6 28  1  0  0  0  0
  7 29  1  0  0  0  0
 15 30  1  0  0  0  0
 15 31  1  0  0  0  0
 21 32  1  0  0  0  0
 21 33  1  0  0  0  0
M  END
> <HYBRID receptor title>
11_LEAD(A) > Q0H(A-301)

> <HYBRID receptor filename>
data/docking/pairs/11_lead.oedu

> <HYBRID Chemgauss4 score>
-9.706366

> <HYBRID receptor title>
11_LEAD(A) > Q0H(A-301)

> <HYBRID receptor filename>
data/docking/pairs/11_lead.oedu

> <Dock Type>
Hybrid

$$$$
