molecule_1
  -OEChem-08062404073D

 33 35  0     0  0  0  0  0  0999 V2000
   34.6238   12.0890   55.4560 C   0  0  0  0  0  0  0  0  0  0  0  0
   38.4235   12.7946   61.8937 C   0  0  0  0  0  0  0  0  0  0  0  0
   39.4757   13.4258   62.5573 C   0  0  0  0  0  0  0  0  0  0  0  0
   38.7685   14.2314   59.9822 C   0  0  0  0  0  0  0  0  0  0  0  0
   35.0168   15.0939   58.3872 C   0  0  0  0  0  0  0  0  0  0  0  0
   35.9451   13.2462   57.6405 C   0  0  0  0  0  0  0  0  0  0  0  0
   34.1803   16.0048   54.2636 C   0  0  0  0  0  0  0  0  0  0  0  0
   34.4694   13.4511   55.0417 C   0  0  0  0  0  0  0  0  0  0  0  0
   35.1928   14.3181   57.2257 C   0  0  0  0  0  0  0  0  0  0  0  0
   38.0699   13.1977   60.6061 C   0  0  0  0  0  0  0  0  0  0  0  0
   40.1743   14.4595   61.9333 C   0  0  0  0  0  0  0  0  0  0  0  0
   39.8207   14.8626   60.6456 C   0  0  0  0  0  0  0  0  0  0  0  0
   34.7400   14.5106   55.8832 C   0  0  0  0  0  0  0  0  0  0  0  0
   34.0407   13.7888   53.7745 C   0  0  0  0  0  0  0  0  0  0  0  0
   36.9451   12.5232   59.8961 C   0  0  0  0  0  0  0  0  0  0  0  0
   34.7491   10.9851   55.7916 N   0  0  0  0  0  0  0  0  0  0  0  0
   35.6091   14.5602   59.4588 N   0  0  0  0  0  0  0  0  0  0  0  0
   34.6059   15.8047   55.5257 N   0  0  0  0  0  0  0  0  0  0  0  0
   33.8840   15.0601   53.3502 N   0  0  0  0  0  0  0  0  0  0  0  0
   36.1651   13.4374   58.9728 N   0  0  0  0  0  0  0  0  0  0  0  0
   33.7439   12.7523   52.8538 N   0  0  0  0  0  0  0  0  0  0  0  0
   41.1846   15.0652   62.5708 F   0  0  0  0  0  0  0  0  0  0  0  0
   40.4912   15.8553   60.0467 F   0  0  0  0  0  0  0  0  0  0  0  0
   37.8846   11.9908   62.3881 H   0  0  0  0  0  0  0  0  0  0  0  0
   39.7514   13.1129   63.5600 H   0  0  0  0  0  0  0  0  0  0  0  0
   38.4994   14.5528   58.9795 H   0  0  0  0  0  0  0  0  0  0  0  0
   34.4830   16.0270   58.5013 H   0  0  0  0  0  0  0  0  0  0  0  0
   36.3345   12.3830   57.1167 H   0  0  0  0  0  0  0  0  0  0  0  0
   34.0646   17.0349   53.9497 H   0  0  0  0  0  0  0  0  0  0  0  0
   37.3161   11.6609   59.3147 H   0  0  0  0  0  0  0  0  0  0  0  0
   36.2473   12.0683   60.6209 H   0  0  0  0  0  0  0  0  0  0  0  0
   33.9028   11.8076   53.1272 H   0  0  0  0  0  0  0  0  0  0  0  0
   33.4856   12.9964   51.9231 H   0  0  0  0  0  0  0  0  0  0  0  0
  1  8  1  0  0  0  0
  1 16  3  0  0  0  0
  2  3  2  0  0  0  0
  2 10  1  0  0  0  0
  3 11  1  0  0  0  0
  4 10  2  0  0  0  0
  4 12  1  0  0  0  0
  5  9  1  0  0  0  0
  5 17  2  0  0  0  0
  6  9  2  0  0  0  0
  6 20  1  0  0  0  0
  7 18  1  0  0  0  0
  7 19  2  0  0  0  0
  8 13  1  0  0  0  0
  8 14  2  0  0  0  0
  9 13  1  0  0  0  0
 10 15  1  0  0  0  0
 11 12  2  0  0  0  0
 11 22  1  0  0  0  0
 12 23  1  0  0  0  0
 13 18  2  0  0  0  0
 14 19  1  0  0  0  0
 14 21  1  0  0  0  0
 15 20  1  0  0  0  0
 17 20  1  0  0  0  0
  2 24  1  0  0  0  0
  3 25  1  0  0  0  0
  4 26  1  0  0  0  0
  5 27  1  0  0  0  0
  6 28  1  0  0  0  0
  7 29  1  0  0  0  0
 15 30  1  0  0  0  0
 15 31  1  0  0  0  0
 21 32  1  0  0  0  0
 21 33  1  0  0  0  0
M  END
> <HYBRID receptor title>
11_FRAG(A) > Q4H(A-301)

> <HYBRID receptor filename>
data/docking/pairs/11_frag.oedu

> <HYBRID Chemgauss4 score>
-10.010871

> <HYBRID receptor title>
11_FRAG(A) > Q4H(A-301)

> <HYBRID receptor filename>
data/docking/pairs/11_frag.oedu

> <Dock Type>
Hybrid

$$$$
