molecule_1
  -OEChem-08062404083D

 22 23  0     0  0  0  0  0  0999 V2000
   18.2794  -11.0251   23.3354 C   0  0  0  0  0  0  0  0  0  0  0  0
   19.1306   -9.9181   23.6523 C   0  0  0  0  0  0  0  0  0  0  0  0
   19.2809   -8.7494   22.8466 C   0  0  0  0  0  0  0  0  0  0  0  0
   20.1804   -7.8632   23.4083 C   0  0  0  0  0  0  0  0  0  0  0  0
   19.9109   -9.8697   24.7873 C   0  0  0  0  0  0  0  0  0  0  0  0
   18.6014   -8.4745   21.5407 C   0  0  0  0  0  0  0  0  0  0  0  0
   20.5470   -6.5306   22.8341 C   0  0  0  0  0  0  0  0  0  0  0  0
   18.6954   -6.9909   21.1508 C   0  0  0  0  0  0  0  0  0  0  0  0
   20.1126   -6.4385   21.3624 C   0  0  0  0  0  0  0  0  0  0  0  0
   17.5896  -11.9224   23.0787 N   0  0  0  0  0  0  0  0  0  0  0  0
   20.0051  -10.8106   25.7633 N   0  0  0  0  0  0  0  0  0  0  0  0
   20.8230   -8.4237   24.8825 S   0  0  0  0  0  0  0  0  0  0  0  0
   19.0793   -9.0835   20.7630 H   0  0  0  0  0  0  0  0  0  0  0  0
   17.5464   -8.7675   21.5841 H   0  0  0  0  0  0  0  0  0  0  0  0
   20.0417   -5.7455   23.4102 H   0  0  0  0  0  0  0  0  0  0  0  0
   21.6258   -6.3528   22.9068 H   0  0  0  0  0  0  0  0  0  0  0  0
   18.3979   -6.8689   20.1033 H   0  0  0  0  0  0  0  0  0  0  0  0
   17.9894   -6.4070   21.7552 H   0  0  0  0  0  0  0  0  0  0  0  0
   20.1619   -5.3947   21.0325 H   0  0  0  0  0  0  0  0  0  0  0  0
   20.8142   -7.0054   20.7367 H   0  0  0  0  0  0  0  0  0  0  0  0
   19.4280  -11.6586   25.7514 H   0  0  0  0  0  0  0  0  0  0  0  0
   20.5766  -10.6617   26.6021 H   0  0  0  0  0  0  0  0  0  0  0  0
  1  2  1  0  0  0  0
  1 10  3  0  0  0  0
  2  3  1  0  0  0  0
  2  5  2  0  0  0  0
  3  4  2  0  0  0  0
  3  6  1  0  0  0  0
  4  7  1  0  0  0  0
  4 12  1  0  0  0  0
  5 11  1  0  0  0  0
  5 12  1  0  0  0  0
  6  8  1  0  0  0  0
  7  9  1  0  0  0  0
  8  9  1  0  0  0  0
  6 13  1  0  0  0  0
  6 14  1  0  0  0  0
  7 15  1  0  0  0  0
  7 16  1  0  0  0  0
  8 17  1  0  0  0  0
  8 18  1  0  0  0  0
  9 19  1  0  0  0  0
  9 20  1  0  0  0  0
 11 21  1  0  0  0  0
 11 22  1  0  0  0  0
M  END
> <HYBRID receptor title>
13_LEAD(A)altA > LXD(A-203)

> <HYBRID receptor filename>
data/docking/pairs/13_lead.oedu

> <HYBRID Chemgauss4 score>
-10.488944

> <HYBRID receptor title>
13_LEAD(A)altA > LXD(A-203)

> <HYBRID receptor filename>
data/docking/pairs/13_lead.oedu

> <Dock Type>
Hybrid

$$$$
