molecule_1
  -OEChem-08062404093D

 79 84  0     1  0  0  0  0  0999 V2000
   18.8119  -11.0006   23.1628 C   0  0  0  0  0  0  0  0  0  0  0  0
   14.2226  -10.3380   21.4448 C   0  0  0  0  0  0  0  0  0  0  0  0
   11.8252  -10.2413   21.6125 C   0  0  0  0  0  0  0  0  0  0  0  0
   19.7111  -10.0699   23.7791 C   0  0  0  0  0  0  0  0  0  0  0  0
   19.8048   -8.6707   23.4691 C   0  0  0  0  0  0  0  0  0  0  0  0
   12.9708  -10.8153   21.0729 C   0  0  0  0  0  0  0  0  0  0  0  0
   14.2743   -9.2924   22.3531 C   0  0  0  0  0  0  0  0  0  0  0  0
   20.7987   -8.0707   24.2246 C   0  0  0  0  0  0  0  0  0  0  0  0
   11.9838   -9.2004   22.5132 C   0  0  0  0  0  0  0  0  0  0  0  0
   20.5899  -10.4520   24.7682 C   0  0  0  0  0  0  0  0  0  0  0  0
   15.5382   -8.7601   22.7740 C   0  0  0  0  0  0  0  0  0  0  0  0
   17.5305   -8.2071   22.7168 C   0  0  0  0  0  0  0  0  0  0  0  0
   13.0269  -15.7390   15.1222 C   0  0  0  0  0  0  0  0  0  0  0  0
   12.7419  -14.6931   15.9009 C   0  0  0  0  0  0  0  0  0  0  0  0
   12.2274  -14.9386   17.2708 C   0  0  0  0  0  0  0  0  0  0  0  0
   21.1972   -6.6308   24.1509 C   0  0  0  0  0  0  0  0  0  0  0  0
   20.7264   -6.0089   22.8310 C   0  0  0  0  0  0  0  0  0  0  0  0
   19.2587   -6.3593   22.5417 C   0  0  0  0  0  0  0  0  0  0  0  0
   11.7319  -12.7918   20.2352 C   0  0  0  0  0  0  0  0  0  0  0  0
   13.9108  -12.1104   19.1695 C   0  0  0  0  0  0  0  0  0  0  0  0
    9.6230   -9.4617   23.2146 C   0  0  0  0  0  0  0  0  0  0  0  0
   12.0666  -14.1307   19.5862 C   0  0  0  0  0  0  0  0  0  0  0  0
   13.3492  -12.7914   17.9241 C   0  0  0  0  0  0  0  0  0  0  0  0
    8.7035   -8.8940   24.2976 C   0  0  0  0  0  0  0  0  0  0  0  0
    9.6652   -6.7076   24.0739 C   0  0  0  0  0  0  0  0  0  0  0  0
   10.6283   -7.1722   22.9666 C   0  0  2  0  0  0  0  0  0  0  0  0
   19.0089   -7.9006   22.4166 C   0  0  1  0  0  0  0  0  0  0  0  0
   10.1199   -6.7831   21.5731 C   0  0  0  0  0  0  0  0  0  0  0  0
   19.4871   -8.3570   21.0158 C   0  0  0  0  0  0  0  0  0  0  0  0
    7.4990   -6.9685   25.0920 C   0  0  0  0  0  0  0  0  0  0  0  0
   18.0839  -11.7542   22.6638 N   0  0  0  0  0  0  0  0  0  0  0  0
   13.1830   -8.7097   22.8985 N   0  0  0  0  0  0  0  0  0  0  0  0
   16.6294   -8.7741   21.9549 N   0  0  0  0  0  0  0  0  0  0  0  0
   15.7250   -8.2203   23.9820 N   0  0  0  0  0  0  0  0  0  0  0  0
   12.8642  -11.8657   20.1625 N   0  0  0  0  0  0  0  0  0  0  0  0
   10.8219   -8.6326   23.0480 N   0  0  2  0  0  0  0  0  0  0  0  0
   12.5451  -13.9758   18.2197 N   0  0  0  0  0  0  0  0  0  0  0  0
    8.4142   -7.4747   24.0712 N   0  0  2  0  0  0  0  0  0  0  0  0
   20.7458  -11.6923   25.3010 N   0  0  0  0  0  0  0  0  0  0  0  0
   11.5666  -15.9579   17.4194 O   0  0  0  0  0  0  0  0  0  0  0  0
   17.0740   -7.8456   23.9445 O   0  0  0  0  0  0  0  0  0  0  0  0
   21.5481   -9.1459   25.3127 S   0  0  0  0  0  0  0  0  0  0  0  0
   15.1279  -10.7745   21.0330 H   0  0  0  0  0  0  0  0  0  0  0  0
   10.8387  -10.6004   21.3341 H   0  0  0  0  0  0  0  0  0  0  0  0
   13.4058  -15.6236   14.1121 H   0  0  0  0  0  0  0  0  0  0  0  0
   12.8821  -16.7482   15.4929 H   0  0  0  0  0  0  0  0  0  0  0  0
   12.8729  -13.6714   15.5674 H   0  0  0  0  0  0  0  0  0  0  0  0
   20.7390   -6.0928   24.9901 H   0  0  0  0  0  0  0  0  0  0  0  0
   22.2837   -6.5164   24.2383 H   0  0  0  0  0  0  0  0  0  0  0  0
   20.8445   -4.9203   22.8803 H   0  0  0  0  0  0  0  0  0  0  0  0
   21.3599   -6.3590   22.0072 H   0  0  0  0  0  0  0  0  0  0  0  0
   18.6501   -5.9479   23.3604 H   0  0  0  0  0  0  0  0  0  0  0  0
   18.9285   -5.8409   21.6321 H   0  0  0  0  0  0  0  0  0  0  0  0
   10.8765  -12.3250   19.7269 H   0  0  0  0  0  0  0  0  0  0  0  0
   11.4247  -12.9688   21.2760 H   0  0  0  0  0  0  0  0  0  0  0  0
   14.6964  -12.7387   19.6172 H   0  0  0  0  0  0  0  0  0  0  0  0
   14.3884  -11.1633   18.8764 H   0  0  0  0  0  0  0  0  0  0  0  0
    9.9002  -10.4909   23.4906 H   0  0  0  0  0  0  0  0  0  0  0  0
    9.0854   -9.5248   22.2554 H   0  0  0  0  0  0  0  0  0  0  0  0
   12.8562  -14.6420   20.1505 H   0  0  0  0  0  0  0  0  0  0  0  0
   11.1854  -14.7814   19.6072 H   0  0  0  0  0  0  0  0  0  0  0  0
   12.7071  -12.0941   17.3722 H   0  0  0  0  0  0  0  0  0  0  0  0
   14.1792  -13.0709   17.2665 H   0  0  0  0  0  0  0  0  0  0  0  0
    7.7697   -9.4697   24.2844 H   0  0  0  0  0  0  0  0  0  0  0  0
    9.1618   -9.0491   25.2839 H   0  0  0  0  0  0  0  0  0  0  0  0
   10.1681   -6.7932   25.0473 H   0  0  0  0  0  0  0  0  0  0  0  0
    9.4476   -5.6422   23.9254 H   0  0  0  0  0  0  0  0  0  0  0  0
   11.5935   -6.6697   23.1258 H   0  0  0  0  0  0  0  0  0  0  0  0
    9.1649   -7.2665   21.3879 H   0  0  0  0  0  0  0  0  0  0  0  0
   10.8385   -7.1015   20.8233 H   0  0  0  0  0  0  0  0  0  0  0  0
    9.9959   -5.7044   21.5204 H   0  0  0  0  0  0  0  0  0  0  0  0
   18.9297   -7.8177   20.2596 H   0  0  0  0  0  0  0  0  0  0  0  0
   19.3141   -9.4214   20.9133 H   0  0  0  0  0  0  0  0  0  0  0  0
   20.5453   -8.1438   20.9169 H   0  0  0  0  0  0  0  0  0  0  0  0
    7.2827   -5.9096   24.9237 H   0  0  0  0  0  0  0  0  0  0  0  0
    6.5590   -7.5269   25.0671 H   0  0  0  0  0  0  0  0  0  0  0  0
    7.9411   -7.0828   26.0856 H   0  0  0  0  0  0  0  0  0  0  0  0
   20.1469  -12.4773   25.0227 H   0  0  0  0  0  0  0  0  0  0  0  0
   21.3946  -11.8682   26.0760 H   0  0  0  0  0  0  0  0  0  0  0  0
  1  4  1  0  0  0  0
  1 31  3  0  0  0  0
  2  6  1  0  0  0  0
  2  7  2  0  0  0  0
  3  6  2  0  0  0  0
  3  9  1  0  0  0  0
  4  5  1  0  0  0  0
  4 10  2  0  0  0  0
  5  8  2  0  0  0  0
  5 27  1  0  0  0  0
  6 35  1  0  0  0  0
  7 11  1  0  0  0  0
  7 32  1  0  0  0  0
  8 16  1  0  0  0  0
  8 42  1  0  0  0  0
  9 32  2  0  0  0  0
  9 36  1  0  0  0  0
 10 39  1  0  0  0  0
 10 42  1  0  0  0  0
 11 33  1  0  0  0  0
 11 34  2  0  0  0  0
 12 27  1  0  0  0  0
 12 33  2  0  0  0  0
 12 41  1  0  0  0  0
 13 14  2  0  0  0  0
 14 15  1  0  0  0  0
 15 37  1  0  0  0  0
 15 40  2  0  0  0  0
 16 17  1  0  0  0  0
 17 18  1  0  0  0  0
 18 27  1  0  0  0  0
 19 22  1  0  0  0  0
 19 35  1  0  0  0  0
 20 23  1  0  0  0  0
 20 35  1  0  0  0  0
 21 24  1  0  0  0  0
 21 36  1  0  0  0  0
 22 37  1  0  0  0  0
 23 37  1  0  0  0  0
 24 38  1  0  0  0  0
 25 26  1  0  0  0  0
 25 38  1  0  0  0  0
 26 28  1  0  0  0  0
 26 36  1  0  0  0  0
 27 29  1  0  0  0  0
 30 38  1  0  0  0  0
 34 41  1  0  0  0  0
  2 43  1  0  0  0  0
  3 44  1  0  0  0  0
 13 45  1  0  0  0  0
 13 46  1  0  0  0  0
 14 47  1  0  0  0  0
 16 48  1  0  0  0  0
 16 49  1  0  0  0  0
 17 50  1  0  0  0  0
 17 51  1  0  0  0  0
 18 52  1  0  0  0  0
 18 53  1  0  0  0  0
 19 54  1  0  0  0  0
 19 55  1  0  0  0  0
 20 56  1  0  0  0  0
 20 57  1  0  0  0  0
 21 58  1  0  0  0  0
 21 59  1  0  0  0  0
 22 60  1  0  0  0  0
 22 61  1  0  0  0  0
 23 62  1  0  0  0  0
 23 63  1  0  0  0  0
 24 64  1  0  0  0  0
 24 65  1  0  0  0  0
 25 66  1  0  0  0  0
 25 67  1  0  0  0  0
 26 68  1  0  0  0  0
 28 69  1  0  0  0  0
 28 70  1  0  0  0  0
 28 71  1  0  0  0  0
 29 72  1  0  0  0  0
 29 73  1  0  0  0  0
 29 74  1  0  0  0  0
 30 75  1  0  0  0  0
 30 76  1  0  0  0  0
 30 77  1  0  0  0  0
 39 78  1  0  0  0  0
 39 79  1  0  0  0  0
M  END
> <HYBRID receptor title>
13_LEAD(A)altA > LXD(A-203)

> <HYBRID receptor filename>
data/docking/pairs/13_lead.oedu

> <HYBRID Chemgauss4 score>
-16.622091

> <HYBRID receptor title>
13_LEAD(A)altA > LXD(A-203)

> <HYBRID receptor filename>
data/docking/pairs/13_lead.oedu

> <Dock Type>
Hybrid

$$$$
