molecule_1
  -OEChem-08062404033D

 17 17  0     0  0  0  0  0  0999 V2000
  -14.6987   24.9964  -25.0124 C   0  0  0  0  0  0  0  0  0  0  0  0
  -16.2441   23.5322  -23.9058 C   0  0  0  0  0  0  0  0  0  0  0  0
  -15.2803   23.6826  -24.8246 C   0  0  0  0  0  0  0  0  0  0  0  0
  -15.0889   26.0677  -24.3004 C   0  0  0  0  0  0  0  0  0  0  0  0
  -16.1733   25.8785  -23.2729 C   0  0  0  0  0  0  0  0  0  0  0  0
  -14.7678   22.5626  -25.6730 C   0  0  0  0  0  0  0  0  0  0  0  0
  -16.6770   24.5934  -23.1546 N   0  0  0  0  0  0  0  0  0  0  0  0
  -14.5831   27.3270  -24.4285 N   0  0  0  0  0  0  0  0  0  0  0  0
  -16.5724   26.8206  -22.5908 O   0  0  0  0  0  0  0  0  0  0  0  0
  -13.8011   22.9922  -26.5112 F   0  0  0  0  0  0  0  0  0  0  0  0
  -14.2470   21.5742  -24.9160 F   0  0  0  0  0  0  0  0  0  0  0  0
  -15.7561   22.0299  -26.4222 F   0  0  0  0  0  0  0  0  0  0  0  0
  -13.9190   25.0956  -25.7629 H   0  0  0  0  0  0  0  0  0  0  0  0
  -16.7298   22.5855  -23.7040 H   0  0  0  0  0  0  0  0  0  0  0  0
  -17.4100   24.4280  -22.4711 H   0  0  0  0  0  0  0  0  0  0  0  0
  -13.8636   27.4877  -25.1002 H   0  0  0  0  0  0  0  0  0  0  0  0
  -14.9472   28.0504  -23.8472 H   0  0  0  0  0  0  0  0  0  0  0  0
  1  3  1  0  0  0  0
  1  4  2  0  0  0  0
  2  3  2  0  0  0  0
  2  7  1  0  0  0  0
  3  6  1  0  0  0  0
  4  5  1  0  0  0  0
  4  8  1  0  0  0  0
  5  7  1  0  0  0  0
  5  9  2  0  0  0  0
  6 10  1  0  0  0  0
  6 11  1  0  0  0  0
  6 12  1  0  0  0  0
  1 13  1  0  0  0  0
  2 14  1  0  0  0  0
  7 15  1  0  0  0  0
  8 16  1  0  0  0  0
  8 17  1  0  0  0  0
M  END
> <HYBRID receptor title>
5N33(AB)altA > 8JW(A-401)

> <HYBRID receptor filename>
data/docking/pairs/1_frag.oedu

> <HYBRID Chemgauss4 score>
-7.722355

> <HYBRID receptor title>
5N33(AB)altA > 8JW(A-401)

> <HYBRID receptor filename>
data/docking/pairs/1_frag.oedu

> <Dock Type>
Hybrid

$$$$
