molecule_1
  -OEChem-08062404113D

 17 18  0     0  0  0  0  0  0999 V2000
  -14.5345    8.2738   24.5030 C   0  0  0  0  0  0  0  0  0  0  0  0
  -14.9340    9.2763   25.4072 C   0  0  0  0  0  0  0  0  0  0  0  0
  -14.1279    8.5995   23.2052 C   0  0  0  0  0  0  0  0  0  0  0  0
  -14.9323   10.6205   25.0311 C   0  0  0  0  0  0  0  0  0  0  0  0
  -14.1299    9.9322   22.8408 C   0  0  0  0  0  0  0  0  0  0  0  0
  -14.5263   10.9137   23.7452 C   0  0  0  0  0  0  0  0  0  0  0  0
  -13.9869   12.0593   21.8249 C   0  0  0  0  0  0  0  0  0  0  0  0
  -13.7527   10.5712   21.5425 C   0  0  0  0  0  0  0  0  0  0  0  0
  -14.4409   12.1647   23.1442 N   0  0  0  0  0  0  0  0  0  0  0  0
  -13.8034   12.9670   21.0286 O   0  0  0  0  0  0  0  0  0  0  0  0
  -14.5436    7.2340   24.8192 H   0  0  0  0  0  0  0  0  0  0  0  0
  -15.2463    8.9977   26.4102 H   0  0  0  0  0  0  0  0  0  0  0  0
  -13.8213    7.8253   22.5107 H   0  0  0  0  0  0  0  0  0  0  0  0
  -15.2388   11.3941   25.7255 H   0  0  0  0  0  0  0  0  0  0  0  0
  -12.6986   10.4053   21.3059 H   0  0  0  0  0  0  0  0  0  0  0  0
  -14.4077   10.2454   20.7306 H   0  0  0  0  0  0  0  0  0  0  0  0
  -14.6793   13.0313   23.6117 H   0  0  0  0  0  0  0  0  0  0  0  0
  1  2  1  0  0  0  0
  1  3  2  0  0  0  0
  2  4  2  0  0  0  0
  3  5  1  0  0  0  0
  4  6  1  0  0  0  0
  5  6  2  0  0  0  0
  5  8  1  0  0  0  0
  6  9  1  0  0  0  0
  7  8  1  0  0  0  0
  7  9  1  0  0  0  0
  7 10  2  0  0  0  0
  1 11  1  0  0  0  0
  2 12  1  0  0  0  0
  3 13  1  0  0  0  0
  4 14  1  0  0  0  0
  8 15  1  0  0  0  0
  8 16  1  0  0  0  0
  9 17  1  0  0  0  0
M  END
> <HYBRID receptor title>
22_LEAD(AB) > J0L(A-502)

> <HYBRID receptor filename>
data/docking/pairs/22_lead.oedu

> <HYBRID Chemgauss4 score>
-9.002220

> <HYBRID receptor title>
22_LEAD(AB) > J0L(A-502)

> <HYBRID receptor filename>
data/docking/pairs/22_lead.oedu

> <Dock Type>
Hybrid

$$$$
