molecule_1
  -OEChem-08062404113D

 28 29  0     0  0  0  0  0  0999 V2000
  -14.6675    8.8406   21.7008 C   0  0  0  0  0  0  0  0  0  0  0  0
  -14.7783    8.3681   23.0129 C   0  0  0  0  0  0  0  0  0  0  0  0
  -14.5726   10.2185   21.4357 C   0  0  0  0  0  0  0  0  0  0  0  0
  -14.7920    9.2930   24.0418 C   0  0  0  0  0  0  0  0  0  0  0  0
  -14.6974   10.6551   23.7629 C   0  0  0  0  0  0  0  0  0  0  0  0
  -14.5874   11.1477   22.4778 C   0  0  0  0  0  0  0  0  0  0  0  0
  -14.8508   10.5472   26.0585 C   0  0  0  0  0  0  0  0  0  0  0  0
  -14.8995    9.0905   25.5339 C   0  0  0  0  0  0  0  0  0  0  0  0
  -13.7109    8.3054   26.0869 C   0  0  0  0  0  0  0  0  0  0  0  0
  -16.2290    8.4468   25.9247 C   0  0  0  0  0  0  0  0  0  0  0  0
  -13.7880   13.0584   21.0872 C   0  0  0  0  0  0  0  0  0  0  0  0
  -14.7320   11.3856   24.9449 N   0  0  0  0  0  0  0  0  0  0  0  0
  -14.4934   12.5236   22.2145 N   0  0  0  0  0  0  0  0  0  0  0  0
  -14.9059   10.8874   27.2310 O   0  0  0  0  0  0  0  0  0  0  0  0
  -14.6542    8.1342   20.8749 H   0  0  0  0  0  0  0  0  0  0  0  0
  -14.8504    7.3040   23.2098 H   0  0  0  0  0  0  0  0  0  0  0  0
  -14.4880   10.5515   20.4038 H   0  0  0  0  0  0  0  0  0  0  0  0
  -13.8213    8.1785   27.1621 H   0  0  0  0  0  0  0  0  0  0  0  0
  -12.7871    8.8437   25.8835 H   0  0  0  0  0  0  0  0  0  0  0  0
  -13.6644    7.3252   25.6144 H   0  0  0  0  0  0  0  0  0  0  0  0
  -16.2718    8.3161   27.0043 H   0  0  0  0  0  0  0  0  0  0  0  0
  -16.3236    7.4754   25.4431 H   0  0  0  0  0  0  0  0  0  0  0  0
  -17.0541    9.0837   25.6089 H   0  0  0  0  0  0  0  0  0  0  0  0
  -13.3525   12.2531   20.4886 H   0  0  0  0  0  0  0  0  0  0  0  0
  -14.4681   13.6368   20.4555 H   0  0  0  0  0  0  0  0  0  0  0  0
  -12.9846   13.7196   21.4235 H   0  0  0  0  0  0  0  0  0  0  0  0
  -14.6773   12.3966   24.9816 H   0  0  0  0  0  0  0  0  0  0  0  0
  -14.9484   13.1472   22.8586 H   0  0  0  0  0  0  0  0  0  0  0  0
  1  2  1  0  0  0  0
  1  3  2  0  0  0  0
  2  4  2  0  0  0  0
  3  6  1  0  0  0  0
  4  5  1  0  0  0  0
  4  8  1  0  0  0  0
  5  6  2  0  0  0  0
  5 12  1  0  0  0  0
  6 13  1  0  0  0  0
  7  8  1  0  0  0  0
  7 12  1  0  0  0  0
  7 14  2  0  0  0  0
  8  9  1  0  0  0  0
  8 10  1  0  0  0  0
 11 13  1  0  0  0  0
  1 15  1  0  0  0  0
  2 16  1  0  0  0  0
  3 17  1  0  0  0  0
  9 18  1  0  0  0  0
  9 19  1  0  0  0  0
  9 20  1  0  0  0  0
 10 21  1  0  0  0  0
 10 22  1  0  0  0  0
 10 23  1  0  0  0  0
 11 24  1  0  0  0  0
 11 25  1  0  0  0  0
 11 26  1  0  0  0  0
 12 27  1  0  0  0  0
 13 28  1  0  0  0  0
M  END
> <HYBRID receptor title>
22_LEAD(AB) > J0L(A-502)

> <HYBRID receptor filename>
data/docking/pairs/22_lead.oedu

> <HYBRID Chemgauss4 score>
-11.536409

> <HYBRID receptor title>
22_LEAD(AB) > J0L(A-502)

> <HYBRID receptor filename>
data/docking/pairs/22_lead.oedu

> <Dock Type>
Hybrid

$$$$
