molecule_1
  -OEChem-08062404113D

 28 29  0     0  0  0  0  0  0999 V2000
  -15.2842    8.7955   22.1821 C   0  0  0  0  0  0  0  0  0  0  0  0
  -15.0633    8.5749   23.5459 C   0  0  0  0  0  0  0  0  0  0  0  0
  -15.2782   10.0979   21.6518 C   0  0  0  0  0  0  0  0  0  0  0  0
  -14.8389    9.6725   24.3578 C   0  0  0  0  0  0  0  0  0  0  0  0
  -14.8364   10.9570   23.8172 C   0  0  0  0  0  0  0  0  0  0  0  0
  -15.0518   11.2023   22.4757 C   0  0  0  0  0  0  0  0  0  0  0  0
  -14.4216   11.2759   26.0602 C   0  0  0  0  0  0  0  0  0  0  0  0
  -14.5749    9.7500   25.8420 C   0  0  0  0  0  0  0  0  0  0  0  0
  -13.2752    9.0433   26.2247 C   0  0  0  0  0  0  0  0  0  0  0  0
  -15.7584    9.2297   26.6567 C   0  0  0  0  0  0  0  0  0  0  0  0
  -14.6464   12.8007   20.6036 C   0  0  0  0  0  0  0  0  0  0  0  0
  -14.5919   11.8921   24.8159 N   0  0  0  0  0  0  0  0  0  0  0  0
  -15.0462   12.5032   21.9476 N   0  0  0  0  0  0  0  0  0  0  0  0
  -14.1933   11.8265   27.1271 O   0  0  0  0  0  0  0  0  0  0  0  0
  -15.4626    7.9498   21.5233 H   0  0  0  0  0  0  0  0  0  0  0  0
  -15.0688    7.5675   23.9478 H   0  0  0  0  0  0  0  0  0  0  0  0
  -15.4538   10.2337   20.5871 H   0  0  0  0  0  0  0  0  0  0  0  0
  -13.1172    9.1189   27.2988 H   0  0  0  0  0  0  0  0  0  0  0  0
  -12.4377    9.5067   25.7067 H   0  0  0  0  0  0  0  0  0  0  0  0
  -13.3307    7.9922   25.9449 H   0  0  0  0  0  0  0  0  0  0  0  0
  -15.5337    9.3004   27.7192 H   0  0  0  0  0  0  0  0  0  0  0  0
  -15.9530    8.1900   26.4009 H   0  0  0  0  0  0  0  0  0  0  0  0
  -16.6453    9.8231   26.4389 H   0  0  0  0  0  0  0  0  0  0  0  0
  -14.3584   11.8864   20.0767 H   0  0  0  0  0  0  0  0  0  0  0  0
  -15.4692   13.2742   20.0606 H   0  0  0  0  0  0  0  0  0  0  0  0
  -13.7953   13.4873   20.6061 H   0  0  0  0  0  0  0  0  0  0  0  0
  -14.5454   12.8907   24.6505 H   0  0  0  0  0  0  0  0  0  0  0  0
  -15.3392   13.2478   22.5561 H   0  0  0  0  0  0  0  0  0  0  0  0
  1  2  1  0  0  0  0
  1  3  2  0  0  0  0
  2  4  2  0  0  0  0
  3  6  1  0  0  0  0
  4  5  1  0  0  0  0
  4  8  1  0  0  0  0
  5  6  2  0  0  0  0
  5 12  1  0  0  0  0
  6 13  1  0  0  0  0
  7  8  1  0  0  0  0
  7 12  1  0  0  0  0
  7 14  2  0  0  0  0
  8  9  1  0  0  0  0
  8 10  1  0  0  0  0
 11 13  1  0  0  0  0
  1 15  1  0  0  0  0
  2 16  1  0  0  0  0
  3 17  1  0  0  0  0
  9 18  1  0  0  0  0
  9 19  1  0  0  0  0
  9 20  1  0  0  0  0
 10 21  1  0  0  0  0
 10 22  1  0  0  0  0
 10 23  1  0  0  0  0
 11 24  1  0  0  0  0
 11 25  1  0  0  0  0
 11 26  1  0  0  0  0
 12 27  1  0  0  0  0
 13 28  1  0  0  0  0
M  END
> <HYBRID receptor title>
22_FRAG(AB) > W6P(A-503)

> <HYBRID receptor filename>
data/docking/pairs/22_frag.oedu

> <HYBRID Chemgauss4 score>
-10.323420

> <HYBRID receptor title>
22_FRAG(AB) > W6P(A-503)

> <HYBRID receptor filename>
data/docking/pairs/22_frag.oedu

> <Dock Type>
Hybrid

$$$$
