molecule_1
  -OEChem-08062404123D

 34 35  0     0  0  0  0  0  0999 V2000
   29.4492    7.8713  -16.9036 C   0  0  0  0  0  0  0  0  0  0  0  0
   28.0804    7.6973  -16.9130 C   0  0  0  0  0  0  0  0  0  0  0  0
   29.9230    8.8355  -16.0379 C   0  0  0  0  0  0  0  0  0  0  0  0
   27.8135    9.3156  -15.3387 C   0  0  0  0  0  0  0  0  0  0  0  0
   31.9202   10.0451  -16.8699 C   0  0  0  0  0  0  0  0  0  0  0  0
   31.9879    8.8358  -14.6998 C   0  0  0  0  0  0  0  0  0  0  0  0
   33.4171    9.7801  -16.9847 C   0  0  0  0  0  0  0  0  0  0  0  0
   33.4812    8.6396  -14.9352 C   0  0  0  0  0  0  0  0  0  0  0  0
   27.4523    6.6803  -17.8082 C   0  0  0  0  0  0  0  0  0  0  0  0
   31.0660    5.9581  -17.0042 C   0  0  0  0  0  0  0  0  0  0  0  0
   30.3482    7.0648  -17.7744 C   0  0  0  0  0  0  0  0  0  0  0  0
   27.2297    8.4047  -16.1408 N   0  0  0  0  0  0  0  0  0  0  0  0
   29.1307    9.5794  -15.2380 N   0  0  0  0  0  0  0  0  0  0  0  0
   31.3027    9.0555  -15.9808 N   0  0  0  0  0  0  0  0  0  0  0  0
   26.9531   10.0756  -14.5168 N   0  0  0  0  0  0  0  0  0  0  0  0
   34.0190    9.7209  -15.6938 O   0  0  0  0  0  0  0  0  0  0  0  0
   31.7591   11.0481  -16.4544 H   0  0  0  0  0  0  0  0  0  0  0  0
   31.4653   10.0094  -17.8668 H   0  0  0  0  0  0  0  0  0  0  0  0
   31.5792    7.9581  -14.1855 H   0  0  0  0  0  0  0  0  0  0  0  0
   31.8326    9.7130  -14.0586 H   0  0  0  0  0  0  0  0  0  0  0  0
   33.6187    8.8503  -17.5302 H   0  0  0  0  0  0  0  0  0  0  0  0
   33.8951   10.5949  -17.5381 H   0  0  0  0  0  0  0  0  0  0  0  0
   34.0061    8.6130  -13.9748 H   0  0  0  0  0  0  0  0  0  0  0  0
   33.6857    7.6911  -15.4465 H   0  0  0  0  0  0  0  0  0  0  0  0
   27.3695    5.7076  -17.3075 H   0  0  0  0  0  0  0  0  0  0  0  0
   28.0530    6.5237  -18.7131 H   0  0  0  0  0  0  0  0  0  0  0  0
   26.4489    7.0054  -18.1073 H   0  0  0  0  0  0  0  0  0  0  0  0
   30.3481    5.2945  -16.5101 H   0  0  0  0  0  0  0  0  0  0  0  0
   31.7205    6.3783  -16.2333 H   0  0  0  0  0  0  0  0  0  0  0  0
   31.6805    5.3522  -17.6772 H   0  0  0  0  0  0  0  0  0  0  0  0
   31.1001    7.7108  -18.2568 H   0  0  0  0  0  0  0  0  0  0  0  0
   29.7789    6.6136  -18.6043 H   0  0  0  0  0  0  0  0  0  0  0  0
   25.9655    9.9492  -14.5996 H   0  0  0  0  0  0  0  0  0  0  0  0
   27.3397   10.7985  -13.9458 H   0  0  0  0  0  0  0  0  0  0  0  0
  1  2  1  0  0  0  0
  1  3  2  0  0  0  0
  1 11  1  0  0  0  0
  2  9  1  0  0  0  0
  2 12  2  0  0  0  0
  3 13  1  0  0  0  0
  3 14  1  0  0  0  0
  4 12  1  0  0  0  0
  4 13  2  0  0  0  0
  4 15  1  0  0  0  0
  5  7  1  0  0  0  0
  5 14  1  0  0  0  0
  6  8  1  0  0  0  0
  6 14  1  0  0  0  0
  7 16  1  0  0  0  0
  8 16  1  0  0  0  0
 10 11  1  0  0  0  0
  5 17  1  0  0  0  0
  5 18  1  0  0  0  0
  6 19  1  0  0  0  0
  6 20  1  0  0  0  0
  7 21  1  0  0  0  0
  7 22  1  0  0  0  0
  8 23  1  0  0  0  0
  8 24  1  0  0  0  0
  9 25  1  0  0  0  0
  9 26  1  0  0  0  0
  9 27  1  0  0  0  0
 10 28  1  0  0  0  0
 10 29  1  0  0  0  0
 10 30  1  0  0  0  0
 11 31  1  0  0  0  0
 11 32  1  0  0  0  0
 15 33  1  0  0  0  0
 15 34  1  0  0  0  0
M  END
> <HYBRID receptor title>
27_LEAD(A) > CJ9(A-200)

> <HYBRID receptor filename>
data/docking/pairs/27_lead.oedu

> <HYBRID Chemgauss4 score>
-8.885348

> <HYBRID receptor title>
27_LEAD(A) > CJ9(A-200)

> <HYBRID receptor filename>
data/docking/pairs/27_lead.oedu

> <Dock Type>
Hybrid

$$$$
