molecule_1
  -OEChem-08062404123D

 36 38  0     0  0  0  0  0  0999 V2000
    0.4631   -7.6732  -16.6508 C   0  0  0  0  0  0  0  0  0  0  0  0
    0.0210   -8.2099  -15.4589 C   0  0  0  0  0  0  0  0  0  0  0  0
    1.7843   -7.9192  -16.9632 C   0  0  0  0  0  0  0  0  0  0  0  0
    2.0699   -9.1034  -15.0435 C   0  0  0  0  0  0  0  0  0  0  0  0
   -3.8957   -8.8244  -16.0195 C   0  0  0  0  0  0  0  0  0  0  0  0
   -2.9907   -9.7505  -15.2057 C   0  0  0  0  0  0  0  0  0  0  0  0
   -3.0905   -7.7608  -16.7665 C   0  0  0  0  0  0  0  0  0  0  0  0
    1.7828   -6.5191  -20.5363 C   0  0  0  0  0  0  0  0  0  0  0  0
    0.5752   -7.2828  -20.0823 C   0  0  0  0  0  0  0  0  0  0  0  0
   -2.0406   -8.9636  -14.2987 C   0  0  0  0  0  0  0  0  0  0  0  0
   -2.1465   -7.0195  -15.8211 C   0  0  0  0  0  0  0  0  0  0  0  0
    1.4671   -6.6198  -19.0692 C   0  0  0  0  0  0  0  0  0  0  0  0
    0.8002   -8.9329  -14.6279 N   0  0  0  0  0  0  0  0  0  0  0  0
    2.6196   -8.6327  -16.1796 N   0  0  0  0  0  0  0  0  0  0  0  0
   -1.3063   -7.9843  -15.1074 N   0  0  0  0  0  0  0  0  0  0  0  0
    2.9149   -9.8552  -14.1983 N   0  0  0  0  0  0  0  0  0  0  0  0
    2.2776   -7.3855  -18.1791 N   0  0  0  0  0  0  0  0  0  0  0  0
   -0.1855   -7.0957  -17.2995 H   0  0  0  0  0  0  0  0  0  0  0  0
   -4.4832   -9.4166  -16.7364 H   0  0  0  0  0  0  0  0  0  0  0  0
   -4.6192   -8.3349  -15.3492 H   0  0  0  0  0  0  0  0  0  0  0  0
   -3.6057  -10.4216  -14.5967 H   0  0  0  0  0  0  0  0  0  0  0  0
   -2.4064  -10.3817  -15.8857 H   0  0  0  0  0  0  0  0  0  0  0  0
   -2.5118   -8.2350  -17.5641 H   0  0  0  0  0  0  0  0  0  0  0  0
   -3.7726   -7.0500  -17.2382 H   0  0  0  0  0  0  0  0  0  0  0  0
    2.6212   -7.0852  -20.9233 H   0  0  0  0  0  0  0  0  0  0  0  0
    1.6223   -5.5650  -21.0232 H   0  0  0  0  0  0  0  0  0  0  0  0
   -0.3985   -6.8429  -20.2592 H   0  0  0  0  0  0  0  0  0  0  0  0
    0.6031   -8.3623  -20.1663 H   0  0  0  0  0  0  0  0  0  0  0  0
   -2.6107   -8.4533  -13.5219 H   0  0  0  0  0  0  0  0  0  0  0  0
   -1.3517   -9.6614  -13.8229 H   0  0  0  0  0  0  0  0  0  0  0  0
   -1.5294   -6.3334  -16.4063 H   0  0  0  0  0  0  0  0  0  0  0  0
   -2.7272   -6.4312  -15.1057 H   0  0  0  0  0  0  0  0  0  0  0  0
    1.0821   -5.7263  -18.5900 H   0  0  0  0  0  0  0  0  0  0  0  0
    2.5620  -10.1775  -13.3210 H   0  0  0  0  0  0  0  0  0  0  0  0
    3.8777   -9.9607  -14.4431 H   0  0  0  0  0  0  0  0  0  0  0  0
    3.2362   -7.5713  -18.3930 H   0  0  0  0  0  0  0  0  0  0  0  0
  1  2  2  0  0  0  0
  1  3  1  0  0  0  0
  2 13  1  0  0  0  0
  2 15  1  0  0  0  0
  3 14  2  0  0  0  0
  3 17  1  0  0  0  0
  4 13  2  0  0  0  0
  4 14  1  0  0  0  0
  4 16  1  0  0  0  0
  5  6  1  0  0  0  0
  5  7  1  0  0  0  0
  6 10  1  0  0  0  0
  7 11  1  0  0  0  0
  8  9  1  0  0  0  0
  8 12  1  0  0  0  0
  9 12  1  0  0  0  0
 10 15  1  0  0  0  0
 11 15  1  0  0  0  0
 12 17  1  0  0  0  0
  1 18  1  0  0  0  0
  5 19  1  0  0  0  0
  5 20  1  0  0  0  0
  6 21  1  0  0  0  0
  6 22  1  0  0  0  0
  7 23  1  0  0  0  0
  7 24  1  0  0  0  0
  8 25  1  0  0  0  0
  8 26  1  0  0  0  0
  9 27  1  0  0  0  0
  9 28  1  0  0  0  0
 10 29  1  0  0  0  0
 10 30  1  0  0  0  0
 11 31  1  0  0  0  0
 11 32  1  0  0  0  0
 12 33  1  0  0  0  0
 16 34  1  0  0  0  0
 16 35  1  0  0  0  0
 17 36  1  0  0  0  0
M  END
> <HYBRID receptor title>
27_FRAG(A) > 95F(A-200)

> <HYBRID receptor filename>
data/docking/pairs/27_frag.oedu

> <HYBRID Chemgauss4 score>
-10.624513

> <HYBRID receptor title>
27_FRAG(A) > 95F(A-200)

> <HYBRID receptor filename>
data/docking/pairs/27_frag.oedu

> <Dock Type>
Hybrid

$$$$
