molecule_1
  -OEChem-08062404043D

 73 75  0     1  0  0  0  0  0999 V2000
  -12.6366   18.3829  -15.7063 C   0  0  0  0  0  0  0  0  0  0  0  0
  -14.5485   23.7695  -21.6709 C   0  0  0  0  0  0  0  0  0  0  0  0
  -14.7333   24.1767  -19.2965 C   0  0  0  0  0  0  0  0  0  0  0  0
  -15.6709   24.5670  -21.8944 C   0  0  0  0  0  0  0  0  0  0  0  0
  -15.8557   24.9742  -19.5200 C   0  0  0  0  0  0  0  0  0  0  0  0
  -11.7221   17.4985  -15.1344 C   0  0  0  0  0  0  0  0  0  0  0  0
  -10.0534   18.1828  -16.7422 C   0  0  0  0  0  0  0  0  0  0  0  0
  -12.2594   19.1674  -16.7961 C   0  0  0  0  0  0  0  0  0  0  0  0
  -14.0797   23.5745  -20.3718 C   0  0  0  0  0  0  0  0  0  0  0  0
  -16.3245   25.1692  -20.8191 C   0  0  0  0  0  0  0  0  0  0  0  0
  -10.9680   19.0672  -17.3140 C   0  0  0  0  0  0  0  0  0  0  0  0
  -10.4307   17.3983  -15.6523 C   0  0  0  0  0  0  0  0  0  0  0  0
  -12.5917   21.3635  -18.0217 C   0  0  0  0  0  0  0  0  0  0  0  0
  -14.2017   20.6460  -19.6038 C   0  0  0  0  0  0  0  0  0  0  0  0
  -13.9618   19.4875  -18.6486 C   0  0  1  0  0  0  0  0  0  0  0  0
  -13.2755   20.1328  -17.4101 C   0  0  1  0  0  0  0  0  0  0  0  0
  -15.5205   23.0431  -14.9447 C   0  0  0  0  0  0  0  0  0  0  0  0
  -15.4492   20.9720  -13.5422 C   0  0  0  0  0  0  0  0  0  0  0  0
  -11.0988   19.5104  -20.6820 C   0  0  0  0  0  0  0  0  0  0  0  0
  -18.0395   26.5326  -19.8934 C   0  0  0  0  0  0  0  0  0  0  0  0
   -8.4707   17.2492  -13.6800 C   0  0  0  0  0  0  0  0  0  0  0  0
  -12.8713   22.7161  -20.1305 C   0  0  0  0  0  0  0  0  0  0  0  0
  -14.3072   20.6958  -16.4074 C   0  0  0  0  0  0  0  0  0  0  0  0
  -13.6179   21.4328  -15.2584 C   0  0  0  0  0  0  0  0  0  0  0  0
   -8.7185   19.5189  -19.8656 C   0  0  0  0  0  0  0  0  0  0  0  0
  -14.6046   22.0375  -14.2424 C   0  0  0  0  0  0  0  0  0  0  0  0
  -10.1585   19.1334  -19.5495 C   0  0  1  0  0  0  0  0  0  0  0  0
  -13.1686   21.5925  -19.2682 N   0  0  0  0  0  0  0  0  0  0  0  0
  -11.7259   22.0315  -17.4716 O   0  0  0  0  0  0  0  0  0  0  0  0
  -10.0199   15.2323  -14.2528 O   0  0  0  0  0  0  0  0  0  0  0  0
   -8.2999   15.9470  -15.9496 O   0  0  0  0  0  0  0  0  0  0  0  0
  -15.1880   18.8582  -18.3150 O   0  0  0  0  0  0  0  0  0  0  0  0
   -7.8455   18.7371  -19.0583 O   0  0  0  0  0  0  0  0  0  0  0  0
  -17.4197   25.9472  -21.0378 O   0  0  0  0  0  0  0  0  0  0  0  0
  -10.5833   19.8269  -18.3777 O   0  0  0  0  0  0  0  0  0  0  0  0
   -9.2869   16.2902  -14.9356 S   0  0  0  0  0  0  0  0  0  0  0  0
  -13.6403   18.4534  -15.2954 H   0  0  0  0  0  0  0  0  0  0  0  0
  -14.0459   23.3044  -22.5147 H   0  0  0  0  0  0  0  0  0  0  0  0
  -14.3749   24.0302  -18.2810 H   0  0  0  0  0  0  0  0  0  0  0  0
  -16.0315   24.7154  -22.9086 H   0  0  0  0  0  0  0  0  0  0  0  0
  -16.3603   25.4407  -18.6783 H   0  0  0  0  0  0  0  0  0  0  0  0
  -12.0258   16.8915  -14.2859 H   0  0  0  0  0  0  0  0  0  0  0  0
   -9.0478   18.1082  -17.1490 H   0  0  0  0  0  0  0  0  0  0  0  0
  -14.0607   20.3529  -20.6524 H   0  0  0  0  0  0  0  0  0  0  0  0
  -15.1877   21.1102  -19.4739 H   0  0  0  0  0  0  0  0  0  0  0  0
  -13.3170   18.7197  -19.1262 H   0  0  0  0  0  0  0  0  0  0  0  0
  -16.1193   22.5591  -15.7231 H   0  0  0  0  0  0  0  0  0  0  0  0
  -14.9355   23.8416  -15.4124 H   0  0  0  0  0  0  0  0  0  0  0  0
  -16.2074   23.5097  -14.2288 H   0  0  0  0  0  0  0  0  0  0  0  0
  -16.0413   20.3987  -14.2627 H   0  0  0  0  0  0  0  0  0  0  0  0
  -14.8232   20.2724  -12.9817 H   0  0  0  0  0  0  0  0  0  0  0  0
  -16.1393   21.4319  -12.8273 H   0  0  0  0  0  0  0  0  0  0  0  0
  -11.0365   20.5815  -20.9048 H   0  0  0  0  0  0  0  0  0  0  0  0
  -12.1366   19.2624  -20.4372 H   0  0  0  0  0  0  0  0  0  0  0  0
  -10.8222   18.9820  -21.6008 H   0  0  0  0  0  0  0  0  0  0  0  0
  -18.9005   27.1279  -20.2083 H   0  0  0  0  0  0  0  0  0  0  0  0
  -18.3749   25.7365  -19.2243 H   0  0  0  0  0  0  0  0  0  0  0  0
  -17.3180   27.1646  -19.3705 H   0  0  0  0  0  0  0  0  0  0  0  0
   -7.7345   16.6138  -13.1855 H   0  0  0  0  0  0  0  0  0  0  0  0
   -9.2211   17.5915  -12.9663 H   0  0  0  0  0  0  0  0  0  0  0  0
   -7.9825   18.0992  -14.1587 H   0  0  0  0  0  0  0  0  0  0  0  0
  -12.4824   22.3228  -21.0756 H   0  0  0  0  0  0  0  0  0  0  0  0
  -12.0667   23.2931  -19.6627 H   0  0  0  0  0  0  0  0  0  0  0  0
  -14.9797   21.3688  -16.9469 H   0  0  0  0  0  0  0  0  0  0  0  0
  -14.9097   19.8691  -16.0163 H   0  0  0  0  0  0  0  0  0  0  0  0
  -12.9578   20.7297  -14.7340 H   0  0  0  0  0  0  0  0  0  0  0  0
  -12.9740   22.2226  -15.6658 H   0  0  0  0  0  0  0  0  0  0  0  0
   -8.4761   19.3184  -20.9144 H   0  0  0  0  0  0  0  0  0  0  0  0
   -8.5348   20.5743  -19.6421 H   0  0  0  0  0  0  0  0  0  0  0  0
  -14.0339   22.5799  -13.4779 H   0  0  0  0  0  0  0  0  0  0  0  0
  -10.2336   18.0601  -19.3401 H   0  0  0  0  0  0  0  0  0  0  0  0
  -15.5701   18.5378  -19.1468 H   0  0  0  0  0  0  0  0  0  0  0  0
   -6.9414   19.0071  -19.2843 H   0  0  0  0  0  0  0  0  0  0  0  0
  1  6  2  0  0  0  0
  1  8  1  0  0  0  0
  2  4  2  0  0  0  0
  2  9  1  0  0  0  0
  3  5  1  0  0  0  0
  3  9  2  0  0  0  0
  4 10  1  0  0  0  0
  5 10  2  0  0  0  0
  6 12  1  0  0  0  0
  7 11  1  0  0  0  0
  7 12  2  0  0  0  0
  8 11  2  0  0  0  0
  8 16  1  0  0  0  0
  9 22  1  0  0  0  0
 10 34  1  0  0  0  0
 11 35  1  0  0  0  0
 12 36  1  0  0  0  0
 13 16  1  0  0  0  0
 13 28  1  0  0  0  0
 13 29  2  0  0  0  0
 14 15  1  0  0  0  0
 14 28  1  0  0  0  0
 15 16  1  0  0  0  0
 15 32  1  0  0  0  0
 16 23  1  0  0  0  0
 17 26  1  0  0  0  0
 18 26  1  0  0  0  0
 19 27  1  0  0  0  0
 20 34  1  0  0  0  0
 21 36  1  0  0  0  0
 22 28  1  0  0  0  0
 23 24  1  0  0  0  0
 24 26  1  0  0  0  0
 25 27  1  0  0  0  0
 25 33  1  0  0  0  0
 27 35  1  0  0  0  0
 30 36  2  0  0  0  0
 31 36  2  0  0  0  0
  1 37  1  0  0  0  0
  2 38  1  0  0  0  0
  3 39  1  0  0  0  0
  4 40  1  0  0  0  0
  5 41  1  0  0  0  0
  6 42  1  0  0  0  0
  7 43  1  0  0  0  0
 14 44  1  0  0  0  0
 14 45  1  0  0  0  0
 15 46  1  0  0  0  0
 17 47  1  0  0  0  0
 17 48  1  0  0  0  0
 17 49  1  0  0  0  0
 18 50  1  0  0  0  0
 18 51  1  0  0  0  0
 18 52  1  0  0  0  0
 19 53  1  0  0  0  0
 19 54  1  0  0  0  0
 19 55  1  0  0  0  0
 20 56  1  0  0  0  0
 20 57  1  0  0  0  0
 20 58  1  0  0  0  0
 21 59  1  0  0  0  0
 21 60  1  0  0  0  0
 21 61  1  0  0  0  0
 22 62  1  0  0  0  0
 22 63  1  0  0  0  0
 23 64  1  0  0  0  0
 23 65  1  0  0  0  0
 24 66  1  0  0  0  0
 24 67  1  0  0  0  0
 25 68  1  0  0  0  0
 25 69  1  0  0  0  0
 26 70  1  0  0  0  0
 27 71  1  0  0  0  0
 32 72  1  0  0  0  0
 33 73  1  0  0  0  0
M  END
> <HYBRID receptor title>
7WBS(AB) > 8LT(B-101)

> <HYBRID receptor filename>
data/docking/pairs/2_lead.oedu

> <HYBRID Chemgauss4 score>
-13.395245

> <HYBRID receptor title>
7WBS(AB) > 8LT(B-101)

> <HYBRID receptor filename>
data/docking/pairs/2_lead.oedu

> <Dock Type>
Hybrid

$$$$
