molecule_1
  -OEChem-08062404043D

 33 35  0     1  0  0  0  0  0999 V2000
   14.9805   -0.6302   24.9605 C   0  0  0  0  0  0  0  0  0  0  0  0
   14.4237   -0.3094   23.7225 C   0  0  0  0  0  0  0  0  0  0  0  0
   14.2898   -1.4635   25.8404 C   0  0  0  0  0  0  0  0  0  0  0  0
   13.1767   -0.8219   23.3642 C   0  0  0  0  0  0  0  0  0  0  0  0
   13.0428   -1.9760   25.4821 C   0  0  0  0  0  0  0  0  0  0  0  0
    6.4955    0.7907   21.8740 C   0  0  0  0  0  0  0  0  0  0  0  0
    8.6223    1.1446   20.8695 C   0  0  0  0  0  0  0  0  0  0  0  0
    6.7844    2.1968   19.9776 C   0  0  0  0  0  0  0  0  0  0  0  0
   12.4860   -1.6552   24.2441 C   0  0  0  0  0  0  0  0  0  0  0  0
    7.8620    0.5348   21.8550 C   0  0  0  0  0  0  0  0  0  0  0  0
    5.9386    1.6362   20.9210 C   0  0  0  0  0  0  0  0  0  0  0  0
    9.7513   -0.1987   23.2622 C   0  0  0  0  0  0  0  0  0  0  0  0
    7.8098   -1.3806   23.4129 C   0  0  0  0  0  0  0  0  0  0  0  0
   10.0049   -1.2982   24.2823 C   0  0  2  0  0  0  0  0  0  0  0  0
   11.1378   -2.2094   23.8571 C   0  0  0  0  0  0  0  0  0  0  0  0
    8.1164    1.9718   19.9273 N   0  0  0  0  0  0  0  0  0  0  0  0
    8.7370   -1.9644   24.2770 N   0  0  0  0  0  0  0  0  0  0  0  0
    8.4467   -0.3065   22.7946 N   0  0  0  0  0  0  0  0  0  0  0  0
   10.5900    0.6309   22.9318 O   0  0  0  0  0  0  0  0  0  0  0  0
    6.6563   -1.7577   23.2469 O   0  0  0  0  0  0  0  0  0  0  0  0
    4.6271    1.8996   20.9152 F   0  0  0  0  0  0  0  0  0  0  0  0
   15.9512   -0.2312   25.2396 H   0  0  0  0  0  0  0  0  0  0  0  0
   14.9615    0.3391   23.0371 H   0  0  0  0  0  0  0  0  0  0  0  0
   14.7230   -1.7132   26.8044 H   0  0  0  0  0  0  0  0  0  0  0  0
   12.7508   -0.5663   22.3974 H   0  0  0  0  0  0  0  0  0  0  0  0
   12.5127   -2.6252   26.1739 H   0  0  0  0  0  0  0  0  0  0  0  0
    5.8561    0.3362   22.6258 H   0  0  0  0  0  0  0  0  0  0  0  0
    9.6941    0.9840   20.8025 H   0  0  0  0  0  0  0  0  0  0  0  0
    6.3991    2.8640   19.2137 H   0  0  0  0  0  0  0  0  0  0  0  0
   10.1692   -0.8618   25.2715 H   0  0  0  0  0  0  0  0  0  0  0  0
   11.0096   -3.2040   24.3063 H   0  0  0  0  0  0  0  0  0  0  0  0
   11.1071   -2.3677   22.7697 H   0  0  0  0  0  0  0  0  0  0  0  0
    8.5141   -2.7546   24.8743 H   0  0  0  0  0  0  0  0  0  0  0  0
  1  2  1  0  0  0  0
  1  3  2  0  0  0  0
  2  4  2  0  0  0  0
  3  5  1  0  0  0  0
  4  9  1  0  0  0  0
  5  9  2  0  0  0  0
  6 10  1  0  0  0  0
  6 11  2  0  0  0  0
  7 10  2  0  0  0  0
  7 16  1  0  0  0  0
  8 11  1  0  0  0  0
  8 16  2  0  0  0  0
  9 15  1  0  0  0  0
 10 18  1  0  0  0  0
 11 21  1  0  0  0  0
 12 14  1  0  0  0  0
 12 18  1  0  0  0  0
 12 19  2  0  0  0  0
 13 17  1  0  0  0  0
 13 18  1  0  0  0  0
 13 20  2  0  0  0  0
 14 15  1  0  0  0  0
 14 17  1  0  0  0  0
  1 22  1  0  0  0  0
  2 23  1  0  0  0  0
  3 24  1  0  0  0  0
  4 25  1  0  0  0  0
  5 26  1  0  0  0  0
  6 27  1  0  0  0  0
  7 28  1  0  0  0  0
  8 29  1  0  0  0  0
 14 30  1  0  0  0  0
 15 31  1  0  0  0  0
 15 32  1  0  0  0  0
 17 33  1  0  0  0  0
M  END
> <HYBRID receptor title>
7QBB(AB) > V1B(B-402)

> <HYBRID receptor filename>
data/docking/pairs/3_lead.oedu

> <HYBRID Chemgauss4 score>
-9.247701

> <HYBRID receptor title>
7QBB(AB) > V1B(B-402)

> <HYBRID receptor filename>
data/docking/pairs/3_lead.oedu

> <Dock Type>
Hybrid

$$$$
