molecule_1
  -OEChem-08062404053D

 27 29  0     0  0  0  0  0  0999 V2000
    2.6847  -10.0927  -28.1891 C   0  0  0  0  0  0  0  0  0  0  0  0
    1.9357   -9.1826  -28.9350 C   0  0  0  0  0  0  0  0  0  0  0  0
    2.0912  -11.2645  -27.7198 C   0  0  0  0  0  0  0  0  0  0  0  0
   -3.0327  -11.8713  -30.5041 C   0  0  0  0  0  0  0  0  0  0  0  0
   -4.0521  -11.4494  -29.6505 C   0  0  0  0  0  0  0  0  0  0  0  0
    0.5937   -9.4441  -29.2118 C   0  0  0  0  0  0  0  0  0  0  0  0
    0.7492  -11.5260  -27.9966 C   0  0  0  0  0  0  0  0  0  0  0  0
   -1.7025  -11.5899  -30.1932 C   0  0  0  0  0  0  0  0  0  0  0  0
   -3.7414  -10.7467  -28.4862 C   0  0  0  0  0  0  0  0  0  0  0  0
    0.0002  -10.6159  -28.7424 C   0  0  0  0  0  0  0  0  0  0  0  0
   -1.3917  -10.8872  -29.0289 C   0  0  0  0  0  0  0  0  0  0  0  0
   -2.4110  -10.4654  -28.1753 C   0  0  0  0  0  0  0  0  0  0  0  0
   -2.1295   -9.7344  -26.9586 C   0  0  0  0  0  0  0  0  0  0  0  0
   -1.4070  -10.1243  -25.9337 N   0  0  0  0  0  0  0  0  0  0  0  0
   -1.4434   -9.0809  -25.0356 N   0  0  0  0  0  0  0  0  0  0  0  0
   -2.1727   -8.0750  -25.5029 N   0  0  0  0  0  0  0  0  0  0  0  0
   -2.6005   -8.4858  -26.7048 N   0  0  0  0  0  0  0  0  0  0  0  0
    3.7293   -9.8890  -27.9730 H   0  0  0  0  0  0  0  0  0  0  0  0
    2.3980   -8.2705  -29.3011 H   0  0  0  0  0  0  0  0  0  0  0  0
    2.6741  -11.9730  -27.1389 H   0  0  0  0  0  0  0  0  0  0  0  0
   -3.2752  -12.4190  -31.4101 H   0  0  0  0  0  0  0  0  0  0  0  0
   -5.0879  -11.6685  -29.8925 H   0  0  0  0  0  0  0  0  0  0  0  0
    0.0233   -8.7241  -29.7939 H   0  0  0  0  0  0  0  0  0  0  0  0
    0.3011  -12.4442  -27.6243 H   0  0  0  0  0  0  0  0  0  0  0  0
   -0.9199  -11.9259  -30.8698 H   0  0  0  0  0  0  0  0  0  0  0  0
   -4.5493  -10.4260  -27.8325 H   0  0  0  0  0  0  0  0  0  0  0  0
   -3.1865   -7.8775  -27.2653 H   0  0  0  0  0  0  0  0  0  0  0  0
  1  2  1  0  0  0  0
  1  3  2  0  0  0  0
  2  6  2  0  0  0  0
  3  7  1  0  0  0  0
  4  5  1  0  0  0  0
  4  8  2  0  0  0  0
  5  9  2  0  0  0  0
  6 10  1  0  0  0  0
  7 10  2  0  0  0  0
  8 11  1  0  0  0  0
  9 12  1  0  0  0  0
 10 11  1  0  0  0  0
 11 12  2  0  0  0  0
 12 13  1  0  0  0  0
 13 14  2  0  0  0  0
 13 17  1  0  0  0  0
 14 15  1  0  0  0  0
 15 16  2  0  0  0  0
 16 17  1  0  0  0  0
  1 18  1  0  0  0  0
  2 19  1  0  0  0  0
  3 20  1  0  0  0  0
  4 21  1  0  0  0  0
  5 22  1  0  0  0  0
  6 23  1  0  0  0  0
  7 24  1  0  0  0  0
  8 25  1  0  0  0  0
  9 26  1  0  0  0  0
 17 27  1  0  0  0  0
M  END
> <HYBRID receptor title>
7UP1(A) > NZR(A-304)

> <HYBRID receptor filename>
data/docking/pairs/4_lead.oedu

> <HYBRID Chemgauss4 score>
-7.553132

> <HYBRID receptor title>
7UP1(A) > NZR(A-304)

> <HYBRID receptor filename>
data/docking/pairs/4_lead.oedu

> <Dock Type>
Hybrid

$$$$
