molecule_1
  -OEChem-08062404053D

 35 37  0     0  0  0  0  0  0999 V2000
    3.1457  -11.6416  -29.5924 C   0  0  0  0  0  0  0  0  0  0  0  0
    1.7885  -11.3272  -29.5227 C   0  0  0  0  0  0  0  0  0  0  0  0
   -0.9479  -10.9354  -27.7398 C   0  0  0  0  0  0  0  0  0  0  0  0
   -0.5974   -9.0775  -29.2441 C   0  0  0  0  0  0  0  0  0  0  0  0
   -2.3125  -10.6484  -27.7044 C   0  0  0  0  0  0  0  0  0  0  0  0
   -1.9619   -8.7905  -29.2087 C   0  0  0  0  0  0  0  0  0  0  0  0
    4.0398  -11.0746  -28.6843 C   0  0  0  0  0  0  0  0  0  0  0  0
   -0.0904  -10.1498  -28.5100 C   0  0  0  0  0  0  0  0  0  0  0  0
    1.3254  -10.4464  -28.5451 C   0  0  0  0  0  0  0  0  0  0  0  0
    2.2196   -9.8794  -27.6370 C   0  0  0  0  0  0  0  0  0  0  0  0
   -2.8195   -9.5761  -28.4386 C   0  0  0  0  0  0  0  0  0  0  0  0
    3.5767  -10.1938  -27.7067 C   0  0  0  0  0  0  0  0  0  0  0  0
    1.7411   -8.9646  -26.6186 C   0  0  0  0  0  0  0  0  0  0  0  0
   -4.2786   -9.2707  -28.4011 C   0  0  0  0  0  0  0  0  0  0  0  0
    1.6255   -7.6591  -26.6989 N   0  0  0  0  0  0  0  0  0  0  0  0
    1.1302   -7.2547  -25.4791 N   0  0  0  0  0  0  0  0  0  0  0  0
    0.9471   -8.2921  -24.6713 N   0  0  0  0  0  0  0  0  0  0  0  0
    1.3297   -9.3596  -25.3857 N   0  0  0  0  0  0  0  0  0  0  0  0
    4.7186  -10.6795  -25.3471 N   0  0  0  0  0  0  0  0  0  0  0  0
    4.2178   -8.2612  -26.0845 O   0  0  0  0  0  0  0  0  0  0  0  0
    6.0543   -9.5450  -27.2365 O   0  0  0  0  0  0  0  0  0  0  0  0
    4.7503   -9.5141  -26.5942 S   0  0  0  0  0  0  0  0  0  0  0  0
    3.5065  -12.3275  -30.3532 H   0  0  0  0  0  0  0  0  0  0  0  0
    1.1050  -11.7808  -30.2368 H   0  0  0  0  0  0  0  0  0  0  0  0
   -0.5681  -11.7745  -27.1620 H   0  0  0  0  0  0  0  0  0  0  0  0
    0.0588   -8.4553  -29.8484 H   0  0  0  0  0  0  0  0  0  0  0  0
   -2.9742  -11.2653  -27.1021 H   0  0  0  0  0  0  0  0  0  0  0  0
   -2.3477   -7.9533  -29.7842 H   0  0  0  0  0  0  0  0  0  0  0  0
    5.0950  -11.3268  -28.7501 H   0  0  0  0  0  0  0  0  0  0  0  0
   -4.5191   -8.5700  -27.5907 H   0  0  0  0  0  0  0  0  0  0  0  0
   -4.8711  -10.1780  -28.2230 H   0  0  0  0  0  0  0  0  0  0  0  0
   -4.6005   -8.8266  -29.3512 H   0  0  0  0  0  0  0  0  0  0  0  0
    1.2804  -10.2846  -24.9739 H   0  0  0  0  0  0  0  0  0  0  0  0
    5.5347  -11.2940  -25.2432 H   0  0  0  0  0  0  0  0  0  0  0  0
    4.2805  -10.4172  -24.4561 H   0  0  0  0  0  0  0  0  0  0  0  0
  1  2  2  0  0  0  0
  1  7  1  0  0  0  0
  2  9  1  0  0  0  0
  3  5  2  0  0  0  0
  3  8  1  0  0  0  0
  4  6  1  0  0  0  0
  4  8  2  0  0  0  0
  5 11  1  0  0  0  0
  6 11  2  0  0  0  0
  7 12  2  0  0  0  0
  8  9  1  0  0  0  0
  9 10  2  0  0  0  0
 10 12  1  0  0  0  0
 10 13  1  0  0  0  0
 11 14  1  0  0  0  0
 12 22  1  0  0  0  0
 13 15  2  0  0  0  0
 13 18  1  0  0  0  0
 15 16  1  0  0  0  0
 16 17  2  0  0  0  0
 17 18  1  0  0  0  0
 19 22  1  0  0  0  0
 20 22  2  0  0  0  0
 21 22  2  0  0  0  0
  1 23  1  0  0  0  0
  2 24  1  0  0  0  0
  3 25  1  0  0  0  0
  4 26  1  0  0  0  0
  5 27  1  0  0  0  0
  6 28  1  0  0  0  0
  7 29  1  0  0  0  0
 14 30  1  0  0  0  0
 14 31  1  0  0  0  0
 14 32  1  0  0  0  0
 18 33  1  0  0  0  0
 19 34  1  0  0  0  0
 19 35  1  0  0  0  0
M  END
> <HYBRID receptor title>
7UP1(A) > NZR(A-304)

> <HYBRID receptor filename>
data/docking/pairs/4_lead.oedu

> <HYBRID Chemgauss4 score>
-6.314587

> <HYBRID receptor title>
7UP1(A) > NZR(A-304)

> <HYBRID receptor filename>
data/docking/pairs/4_lead.oedu

> <Dock Type>
Hybrid

$$$$
