molecule_1
  -OEChem-08062404053D

 30 30  0     1  0  0  0  0  0999 V2000
   19.9948  -19.7825    2.5710 C   0  0  0  0  0  0  0  0  0  0  0  0
   18.4716  -20.2490    0.7545 C   0  0  0  0  0  0  0  0  0  0  0  0
   18.9210  -19.7430    3.4605 C   0  0  0  0  0  0  0  0  0  0  0  0
   17.3979  -20.2096    1.6439 C   0  0  0  0  0  0  0  0  0  0  0  0
   19.7700  -20.0356    1.2180 C   0  0  0  0  0  0  0  0  0  0  0  0
   17.6227  -19.9564    2.9970 C   0  0  0  0  0  0  0  0  0  0  0  0
   22.6291  -18.7245   -1.0092 C   0  0  0  0  0  0  0  0  0  0  0  0
   24.6185  -17.3776   -1.7235 C   0  0  0  0  0  0  0  0  0  0  0  0
   22.6970  -16.2413   -0.6836 C   0  0  0  0  0  0  0  0  0  0  0  0
   20.9321  -20.0770    0.2544 C   0  0  0  0  0  0  0  0  0  0  0  0
   21.2487  -18.7092   -0.3610 C   0  0  2  0  0  0  0  0  0  0  0  0
   20.2835  -18.4070   -1.4503 N   0  0  0  0  0  0  0  0  0  0  0  0
   23.2881  -17.4970   -1.1336 N   0  0  0  0  0  0  0  0  0  0  0  0
   23.1228  -19.7924   -1.3878 O   0  0  0  0  0  0  0  0  0  0  0  0
   16.5922  -19.9176    3.8516 F   0  0  0  0  0  0  0  0  0  0  0  0
   21.0030  -19.6157    2.9407 H   0  0  0  0  0  0  0  0  0  0  0  0
   18.2873  -20.4471   -0.2982 H   0  0  0  0  0  0  0  0  0  0  0  0
   19.0951  -19.5461    4.5141 H   0  0  0  0  0  0  0  0  0  0  0  0
   16.3868  -20.3754    1.2834 H   0  0  0  0  0  0  0  0  0  0  0  0
   24.5475  -17.2135   -2.8026 H   0  0  0  0  0  0  0  0  0  0  0  0
   25.1565  -16.5374   -1.2754 H   0  0  0  0  0  0  0  0  0  0  0  0
   25.1943  -18.2898   -1.5443 H   0  0  0  0  0  0  0  0  0  0  0  0
   22.9626  -16.0429    0.3588 H   0  0  0  0  0  0  0  0  0  0  0  0
   23.0551  -15.4125   -1.3008 H   0  0  0  0  0  0  0  0  0  0  0  0
   21.6075  -16.2860   -0.7658 H   0  0  0  0  0  0  0  0  0  0  0  0
   20.7267  -20.8110   -0.5367 H   0  0  0  0  0  0  0  0  0  0  0  0
   21.8069  -20.4722    0.7869 H   0  0  0  0  0  0  0  0  0  0  0  0
   21.1671  -17.8899    0.3594 H   0  0  0  0  0  0  0  0  0  0  0  0
   20.5291  -17.5073   -1.8331 H   0  0  0  0  0  0  0  0  0  0  0  0
   19.3692  -18.3255   -1.0330 H   0  0  0  0  0  0  0  0  0  0  0  0
  1  3  2  0  0  0  0
  1  5  1  0  0  0  0
  2  4  1  0  0  0  0
  2  5  2  0  0  0  0
  3  6  1  0  0  0  0
  4  6  2  0  0  0  0
  5 10  1  0  0  0  0
  6 15  1  0  0  0  0
  7 11  1  0  0  0  0
  7 13  1  0  0  0  0
  7 14  2  0  0  0  0
  8 13  1  0  0  0  0
  9 13  1  0  0  0  0
 10 11  1  0  0  0  0
 11 12  1  0  0  0  0
  1 16  1  0  0  0  0
  2 17  1  0  0  0  0
  3 18  1  0  0  0  0
  4 19  1  0  0  0  0
  8 20  1  0  0  0  0
  8 21  1  0  0  0  0
  8 22  1  0  0  0  0
  9 23  1  0  0  0  0
  9 24  1  0  0  0  0
  9 25  1  0  0  0  0
 10 26  1  0  0  0  0
 10 27  1  0  0  0  0
 11 28  1  0  0  0  0
 12 29  1  0  0  0  0
 12 30  1  0  0  0  0
M  END
> <HYBRID receptor title>
7ZZO(A) > KIZ(A-604)

> <HYBRID receptor filename>
data/docking/pairs/5_frag.oedu

> <HYBRID Chemgauss4 score>
-5.073477

> <HYBRID receptor title>
7ZZO(A) > KIZ(A-604)

> <HYBRID receptor filename>
data/docking/pairs/5_frag.oedu

> <Dock Type>
Hybrid

$$$$
