molecule_1
  -OEChem-08062404063D

 22 23  0     0  0  0  0  0  0999 V2000
  -30.6049  -46.8795  -10.3238 C   0  0  0  0  0  0  0  0  0  0  0  0
  -29.3979  -46.9478  -11.0174 C   0  0  0  0  0  0  0  0  0  0  0  0
  -31.0967  -45.6480   -9.8865 C   0  0  0  0  0  0  0  0  0  0  0  0
  -28.6748  -45.7844  -11.2776 C   0  0  0  0  0  0  0  0  0  0  0  0
  -30.3732  -44.4814  -10.1464 C   0  0  0  0  0  0  0  0  0  0  0  0
  -29.1675  -44.5517  -10.8392 C   0  0  0  0  0  0  0  0  0  0  0  0
  -30.8254  -43.1426   -9.7168 C   0  0  0  0  0  0  0  0  0  0  0  0
  -28.4226  -43.3096  -11.1013 C   0  0  0  0  0  0  0  0  0  0  0  0
  -32.1275  -43.0135   -8.9619 C   0  0  0  0  0  0  0  0  0  0  0  0
  -30.1610  -42.0552   -9.9547 N   0  0  0  0  0  0  0  0  0  0  0  0
  -28.9909  -42.1464  -10.6293 N   0  0  0  0  0  0  0  0  0  0  0  0
  -33.2092  -43.1592   -9.8903 N   0  0  0  0  0  0  0  0  0  0  0  0
  -27.3567  -43.3393  -11.7095 O   0  0  0  0  0  0  0  0  0  0  0  0
  -31.1659  -47.7880  -10.1232 H   0  0  0  0  0  0  0  0  0  0  0  0
  -29.0206  -47.9084  -11.3560 H   0  0  0  0  0  0  0  0  0  0  0  0
  -32.0398  -45.6301   -9.3494 H   0  0  0  0  0  0  0  0  0  0  0  0
  -27.7362  -45.8578  -11.8196 H   0  0  0  0  0  0  0  0  0  0  0  0
  -32.1624  -43.7863   -8.2000 H   0  0  0  0  0  0  0  0  0  0  0  0
  -32.1634  -42.0376   -8.4878 H   0  0  0  0  0  0  0  0  0  0  0  0
  -28.4880  -41.2818  -10.8028 H   0  0  0  0  0  0  0  0  0  0  0  0
  -34.1089  -43.1235   -9.3994 H   0  0  0  0  0  0  0  0  0  0  0  0
  -33.1803  -44.0849  -10.3313 H   0  0  0  0  0  0  0  0  0  0  0  0
  1  2  1  0  0  0  0
  1  3  2  0  0  0  0
  2  4  2  0  0  0  0
  3  5  1  0  0  0  0
  4  6  1  0  0  0  0
  5  6  2  0  0  0  0
  5  7  1  0  0  0  0
  6  8  1  0  0  0  0
  7  9  1  0  0  0  0
  7 10  2  0  0  0  0
  8 11  1  0  0  0  0
  8 13  2  0  0  0  0
  9 12  1  0  0  0  0
 10 11  1  0  0  0  0
  1 14  1  0  0  0  0
  2 15  1  0  0  0  0
  3 16  1  0  0  0  0
  4 17  1  0  0  0  0
  9 18  1  0  0  0  0
  9 19  1  0  0  0  0
 11 20  1  0  0  0  0
 12 21  1  0  0  0  0
 12 22  1  0  0  0  0
M  END
> <HYBRID receptor title>
6_LEAD(AB) > 85K(A-702)

> <HYBRID receptor filename>
data/docking/pairs/6_lead.oedu

> <HYBRID Chemgauss4 score>
-11.601062

> <HYBRID receptor title>
6_LEAD(AB) > 85K(A-702)

> <HYBRID receptor filename>
data/docking/pairs/6_lead.oedu

> <Dock Type>
Hybrid

$$$$
