molecule_1
  -OEChem-08062404063D

 22 23  0     0  0  0  0  0  0999 V2000
  -35.8898  -38.6781   -6.0955 C   0  0  0  0  0  0  0  0  0  0  0  0
  -34.9799  -39.7256   -5.9636 C   0  0  0  0  0  0  0  0  0  0  0  0
  -35.7783  -37.5433   -5.2896 C   0  0  0  0  0  0  0  0  0  0  0  0
  -33.9528  -39.6449   -5.0242 C   0  0  0  0  0  0  0  0  0  0  0  0
  -34.7496  -37.4609   -4.3478 C   0  0  0  0  0  0  0  0  0  0  0  0
  -33.8419  -38.5086   -4.2174 C   0  0  0  0  0  0  0  0  0  0  0  0
  -34.5652  -36.2961   -3.4587 C   0  0  0  0  0  0  0  0  0  0  0  0
  -32.7665  -38.3997   -3.2182 C   0  0  0  0  0  0  0  0  0  0  0  0
  -35.5241  -35.1334   -3.5617 C   0  0  0  0  0  0  0  0  0  0  0  0
  -33.6130  -36.2111   -2.5831 N   0  0  0  0  0  0  0  0  0  0  0  0
  -32.7418  -37.2411   -2.4726 N   0  0  0  0  0  0  0  0  0  0  0  0
  -36.4262  -35.1864   -2.4496 N   0  0  0  0  0  0  0  0  0  0  0  0
  -31.9510  -39.3068   -3.0797 O   0  0  0  0  0  0  0  0  0  0  0  0
  -36.6887  -38.7442   -6.8288 H   0  0  0  0  0  0  0  0  0  0  0  0
  -35.0710  -40.6055   -6.5939 H   0  0  0  0  0  0  0  0  0  0  0  0
  -36.5032  -36.7457   -5.4181 H   0  0  0  0  0  0  0  0  0  0  0  0
  -33.2534  -40.4714   -4.9362 H   0  0  0  0  0  0  0  0  0  0  0  0
  -34.9505  -34.2115   -3.5532 H   0  0  0  0  0  0  0  0  0  0  0  0
  -36.0699  -35.2100   -4.4969 H   0  0  0  0  0  0  0  0  0  0  0  0
  -32.0055  -37.1524   -1.7794 H   0  0  0  0  0  0  0  0  0  0  0  0
  -37.0612  -34.3813   -2.4656 H   0  0  0  0  0  0  0  0  0  0  0  0
  -35.9109  -35.1048   -1.5664 H   0  0  0  0  0  0  0  0  0  0  0  0
  1  2  1  0  0  0  0
  1  3  2  0  0  0  0
  2  4  2  0  0  0  0
  3  5  1  0  0  0  0
  4  6  1  0  0  0  0
  5  6  2  0  0  0  0
  5  7  1  0  0  0  0
  6  8  1  0  0  0  0
  7  9  1  0  0  0  0
  7 10  2  0  0  0  0
  8 11  1  0  0  0  0
  8 13  2  0  0  0  0
  9 12  1  0  0  0  0
 10 11  1  0  0  0  0
  1 14  1  0  0  0  0
  2 15  1  0  0  0  0
  3 16  1  0  0  0  0
  4 17  1  0  0  0  0
  9 18  1  0  0  0  0
  9 19  1  0  0  0  0
 11 20  1  0  0  0  0
 12 21  1  0  0  0  0
 12 22  1  0  0  0  0
M  END
> <HYBRID receptor title>
6_FRAG(AB) > MTA(A-705)

> <HYBRID receptor filename>
data/docking/pairs/6_frag.oedu

> <HYBRID Chemgauss4 score>
-9.232970

> <HYBRID receptor title>
6_FRAG(AB) > MTA(A-705)

> <HYBRID receptor filename>
data/docking/pairs/6_frag.oedu

> <Dock Type>
Hybrid

$$$$
