molecule_1
  -OEChem-08062404063D

 35 37  0     0  0  0  0  0  0999 V2000
  -30.1366  -40.0574   -2.9512 C   0  0  0  0  0  0  0  0  0  0  0  0
  -35.1172  -38.2987   -6.2282 C   0  0  0  0  0  0  0  0  0  0  0  0
  -28.7167  -39.0232   -6.2262 C   0  0  0  0  0  0  0  0  0  0  0  0
  -29.2555  -37.7446   -6.3699 C   0  0  0  0  0  0  0  0  0  0  0  0
  -29.0134  -39.7811   -5.0935 C   0  0  0  0  0  0  0  0  0  0  0  0
  -30.0909  -37.2241   -5.3814 C   0  0  0  0  0  0  0  0  0  0  0  0
  -33.2411  -37.8113   -4.7053 C   0  0  0  0  0  0  0  0  0  0  0  0
  -33.3288  -35.9289   -3.1634 C   0  0  0  0  0  0  0  0  0  0  0  0
  -29.8488  -39.2606   -4.1050 C   0  0  0  0  0  0  0  0  0  0  0  0
  -34.5130  -37.5137   -5.2062 C   0  0  0  0  0  0  0  0  0  0  0  0
  -30.3875  -37.9821   -4.2486 C   0  0  0  0  0  0  0  0  0  0  0  0
  -32.6584  -37.0331   -3.7023 C   0  0  0  0  0  0  0  0  0  0  0  0
  -34.6075  -35.6161   -3.6546 C   0  0  0  0  0  0  0  0  0  0  0  0
  -35.1628  -36.4093   -4.6547 C   0  0  0  0  0  0  0  0  0  0  0  0
  -36.5227  -34.7661   -4.0670 C   0  0  0  0  0  0  0  0  0  0  0  0
  -37.3713  -36.2917   -5.8614 C   0  0  0  0  0  0  0  0  0  0  0  0
  -31.2976  -37.3831   -3.1960 C   0  0  0  0  0  0  0  0  0  0  0  0
  -30.3700  -40.7034   -2.0158 N   0  0  0  0  0  0  0  0  0  0  0  0
  -35.6098  -38.9390   -7.0614 N   0  0  0  0  0  0  0  0  0  0  0  0
  -35.4666  -34.6000   -3.3019 N   0  0  0  0  0  0  0  0  0  0  0  0
  -36.3877  -35.8421   -4.8986 N   0  0  0  0  0  0  0  0  0  0  0  0
  -37.6560  -34.0255   -4.1101 N   0  0  0  0  0  0  0  0  0  0  0  0
  -28.0666  -39.4278   -6.9963 H   0  0  0  0  0  0  0  0  0  0  0  0
  -29.0233  -37.1540   -7.2514 H   0  0  0  0  0  0  0  0  0  0  0  0
  -28.5854  -40.7762   -4.9968 H   0  0  0  0  0  0  0  0  0  0  0  0
  -30.5044  -36.2262   -5.5021 H   0  0  0  0  0  0  0  0  0  0  0  0
  -32.6922  -38.6636   -5.1034 H   0  0  0  0  0  0  0  0  0  0  0  0
  -32.8743  -35.3246   -2.3842 H   0  0  0  0  0  0  0  0  0  0  0  0
  -38.0578  -37.0159   -5.4102 H   0  0  0  0  0  0  0  0  0  0  0  0
  -36.8723  -36.7616   -6.7147 H   0  0  0  0  0  0  0  0  0  0  0  0
  -37.9763  -35.4535   -6.2223 H   0  0  0  0  0  0  0  0  0  0  0  0
  -31.3721  -38.0829   -2.3460 H   0  0  0  0  0  0  0  0  0  0  0  0
  -30.8082  -36.4941   -2.7624 H   0  0  0  0  0  0  0  0  0  0  0  0
  -37.8172  -33.2414   -3.4648 H   0  0  0  0  0  0  0  0  0  0  0  0
  -38.4477  -34.2784   -4.7155 H   0  0  0  0  0  0  0  0  0  0  0  0
  1  9  1  0  0  0  0
  1 18  3  0  0  0  0
  2 10  1  0  0  0  0
  2 19  3  0  0  0  0
  3  4  1  0  0  0  0
  3  5  2  0  0  0  0
  4  6  2  0  0  0  0
  5  9  1  0  0  0  0
  6 11  1  0  0  0  0
  7 10  2  0  0  0  0
  7 12  1  0  0  0  0
  8 12  2  0  0  0  0
  8 13  1  0  0  0  0
  9 11  2  0  0  0  0
 10 14  1  0  0  0  0
 11 17  1  0  0  0  0
 12 17  1  0  0  0  0
 13 14  2  0  0  0  0
 13 20  1  0  0  0  0
 14 21  1  0  0  0  0
 15 20  2  0  0  0  0
 15 21  1  0  0  0  0
 15 22  1  0  0  0  0
 16 21  1  0  0  0  0
  3 23  1  0  0  0  0
  4 24  1  0  0  0  0
  5 25  1  0  0  0  0
  6 26  1  0  0  0  0
  7 27  1  0  0  0  0
  8 28  1  0  0  0  0
 16 29  1  0  0  0  0
 16 30  1  0  0  0  0
 16 31  1  0  0  0  0
 17 32  1  0  0  0  0
 17 33  1  0  0  0  0
 22 34  1  0  0  0  0
 22 35  1  0  0  0  0
M  END
> <HYBRID receptor title>
7_FRAG(AB) > MTA(A-802)

> <HYBRID receptor filename>
data/docking/pairs/7_frag.oedu

> <HYBRID Chemgauss4 score>
-10.128633

> <HYBRID receptor title>
7_FRAG(AB) > MTA(A-802)

> <HYBRID receptor filename>
data/docking/pairs/7_frag.oedu

> <Dock Type>
Hybrid

$$$$
