molecule_1
  -OEChem-08062404063D

 21 22  0     0  0  0  0  0  0999 V2000
  -36.6736  -35.3616   -3.6764 C   0  0  0  0  0  0  0  0  0  0  0  0
  -35.4159  -35.6482   -3.1604 C   0  0  0  0  0  0  0  0  0  0  0  0
  -33.1052  -38.6383   -4.8396 C   0  0  0  0  0  0  0  0  0  0  0  0
  -37.1029  -36.1076   -4.7526 C   0  0  0  0  0  0  0  0  0  0  0  0
  -34.3626  -38.3520   -5.3565 C   0  0  0  0  0  0  0  0  0  0  0  0
  -34.6236  -36.6491   -3.7105 C   0  0  0  0  0  0  0  0  0  0  0  0
  -35.1551  -37.3510   -4.8065 C   0  0  0  0  0  0  0  0  0  0  0  0
  -32.6757  -37.8926   -3.7643 C   0  0  0  0  0  0  0  0  0  0  0  0
  -34.8481  -39.1499   -6.5258 C   0  0  0  0  0  0  0  0  0  0  0  0
  -36.3724  -37.0889   -5.3223 N   0  0  0  0  0  0  0  0  0  0  0  0
  -33.4071  -36.9118   -3.1947 N   0  0  0  0  0  0  0  0  0  0  0  0
  -31.3937  -38.1820   -3.2366 N   0  0  0  0  0  0  0  0  0  0  0  0
  -37.2915  -34.5819   -3.2472 H   0  0  0  0  0  0  0  0  0  0  0  0
  -35.0533  -35.0739   -2.3103 H   0  0  0  0  0  0  0  0  0  0  0  0
  -32.4888  -39.4206   -5.2715 H   0  0  0  0  0  0  0  0  0  0  0  0
  -38.0748  -35.9336   -5.2018 H   0  0  0  0  0  0  0  0  0  0  0  0
  -35.3935  -40.0413   -6.1951 H   0  0  0  0  0  0  0  0  0  0  0  0
  -34.0095  -39.4954   -7.1415 H   0  0  0  0  0  0  0  0  0  0  0  0
  -35.5133  -38.5411   -7.1473 H   0  0  0  0  0  0  0  0  0  0  0  0
  -30.8748  -38.9411   -3.6219 H   0  0  0  0  0  0  0  0  0  0  0  0
  -31.0847  -37.6911   -2.4258 H   0  0  0  0  0  0  0  0  0  0  0  0
  1  2  2  0  0  0  0
  1  4  1  0  0  0  0
  2  6  1  0  0  0  0
  3  5  1  0  0  0  0
  3  8  2  0  0  0  0
  4 10  2  0  0  0  0
  5  7  2  0  0  0  0
  5  9  1  0  0  0  0
  6  7  1  0  0  0  0
  6 11  2  0  0  0  0
  7 10  1  0  0  0  0
  8 11  1  0  0  0  0
  8 12  1  0  0  0  0
  1 13  1  0  0  0  0
  2 14  1  0  0  0  0
  3 15  1  0  0  0  0
  4 16  1  0  0  0  0
  9 17  1  0  0  0  0
  9 18  1  0  0  0  0
  9 19  1  0  0  0  0
 12 20  1  0  0  0  0
 12 21  1  0  0  0  0
M  END
> <HYBRID receptor title>
8_FRAG(AB) > MTA(A-702)

> <HYBRID receptor filename>
data/docking/pairs/8_frag.oedu

> <HYBRID Chemgauss4 score>
-7.038016

> <HYBRID receptor title>
8_FRAG(AB) > MTA(A-702)

> <HYBRID receptor filename>
data/docking/pairs/8_frag.oedu

> <Dock Type>
Hybrid

$$$$
