MOL0105
     RDKit          3D

 12 12  0  0  0  0  0  0  0  0999 V2000
   -2.2364   14.9829   -0.3429 C   0  0  0  0  0  0  0  0  0  0  0  0
   -3.5699   15.0512   -0.3010 C   0  0  0  0  0  0  0  0  0  0  0  0
   -1.5028   14.9262    0.9361 C   0  0  0  0  0  0  0  0  0  0  0  0
   -4.2314   15.0658    1.0359 C   0  0  0  0  0  0  0  0  0  0  0  0
    0.0015   14.8499    0.8715 C   0  0  0  0  0  0  0  0  0  0  0  0
   -2.0565   14.9380    2.1047 N   0  0  0  0  0  0  0  0  0  0  0  0
   -3.4072   15.0067    2.1363 N   0  0  0  0  0  0  0  0  0  0  0  0
   -4.3867   15.1094   -1.3910 N   0  0  0  0  0  0  0  0  0  0  0  0
   -5.4568   15.1279    1.1300 O   0  0  0  0  0  0  0  0  0  0  0  0
    0.4204   14.8474   -0.4070 F   0  0  0  0  0  0  0  0  0  0  0  0
    0.5599   15.9024    1.4961 F   0  0  0  0  0  0  0  0  0  0  0  0
    0.4442   13.7254    1.4629 F   0  0  0  0  0  0  0  0  0  0  0  0
  1  2  2  0
  1  3  1  0
  2  4  1  0
  2  8  1  0
  3  5  1  0
  3  6  2  0
  4  7  1  0
  4  9  2  0
  5 10  1  0
  5 11  1  0
  5 12  1  0
  6  7  1  0
M  END
$$$$
