MOL0156
  -OEChem-07032415493D

 28 29  0     1  0  0  0  0  0999 V2000
   -1.0408   14.2529   -1.8765 C   0  0  0  0  0  0  0  0  0  0  0  0
    1.3544   14.3285   -1.9965 C   0  0  0  0  0  0  0  0  0  0  0  0
    0.1945   14.0458   -2.6052 C   0  0  0  0  0  0  0  0  0  0  0  0
   -1.0664   14.7174   -0.6154 C   0  0  0  0  0  0  0  0  0  0  0  0
    0.2472   15.0291    0.0514 C   0  0  0  0  0  0  0  0  0  0  0  0
   -2.3191   14.8087    1.4847 C   0  0  0  0  0  0  0  0  0  0  0  0
   -3.4846   15.2720   -0.5208 C   0  0  0  0  0  0  0  0  0  0  0  0
   -4.4463   15.4370    0.6595 C   0  0  1  0  0  0  0  0  0  0  0  0
   -5.6734   14.5477    0.5486 C   0  0  0  0  0  0  0  0  0  0  0  0
    0.1031   13.5249   -4.0042 C   0  0  0  0  0  0  0  0  0  0  0  0
    1.3813   14.8041   -0.7117 N   0  0  0  0  0  0  0  0  0  0  0  0
   -3.6508   15.0996    1.8188 N   0  0  0  0  0  0  0  0  0  0  0  0
   -2.2170   14.9187    0.0845 N   0  0  0  0  0  0  0  0  0  0  0  0
    0.2842   15.4563    1.2038 O   0  0  0  0  0  0  0  0  0  0  0  0
   -1.4331   14.5205    2.2795 O   0  0  0  0  0  0  0  0  0  0  0  0
   -1.1823   13.3273   -4.3652 F   0  0  0  0  0  0  0  0  0  0  0  0
    0.6498   14.3892   -4.8847 F   0  0  0  0  0  0  0  0  0  0  0  0
    0.7514   12.3473   -4.1269 F   0  0  0  0  0  0  0  0  0  0  0  0
   -1.9682   14.0163   -2.3916 H   0  0  0  0  0  0  0  0  0  0  0  0
    2.3201   14.2019   -2.4702 H   0  0  0  0  0  0  0  0  0  0  0  0
   -3.7836   14.4748   -1.2100 H   0  0  0  0  0  0  0  0  0  0  0  0
   -3.3666   16.2113   -1.0719 H   0  0  0  0  0  0  0  0  0  0  0  0
   -4.7486   16.4845    0.7679 H   0  0  0  0  0  0  0  0  0  0  0  0
   -5.3739   13.5039    0.4405 H   0  0  0  0  0  0  0  0  0  0  0  0
   -6.2687   14.8334   -0.3202 H   0  0  0  0  0  0  0  0  0  0  0  0
   -6.2915   14.6441    1.4437 H   0  0  0  0  0  0  0  0  0  0  0  0
    2.2907   15.0001   -0.3036 H   0  0  0  0  0  0  0  0  0  0  0  0
   -4.0141   15.0758    2.7665 H   0  0  0  0  0  0  0  0  0  0  0  0
  1  3  1  0  0  0  0
  1  4  2  0  0  0  0
  2  3  2  0  0  0  0
  2 11  1  0  0  0  0
  3 10  1  0  0  0  0
  4  5  1  0  0  0  0
  4 13  1  0  0  0  0
  5 11  1  0  0  0  0
  5 14  2  0  0  0  0
  6 12  1  0  0  0  0
  6 13  1  0  0  0  0
  6 15  2  0  0  0  0
  7  8  1  0  0  0  0
  7 13  1  0  0  0  0
  8  9  1  0  0  0  0
  8 12  1  0  0  0  0
 10 16  1  0  0  0  0
 10 17  1  0  0  0  0
 10 18  1  0  0  0  0
  1 19  1  0  0  0  0
  2 20  1  0  0  0  0
  7 21  1  0  0  0  0
  7 22  1  0  0  0  0
  8 23  1  0  0  0  0
  9 24  1  0  0  0  0
  9 25  1  0  0  0  0
  9 26  1  0  0  0  0
 11 27  1  0  0  0  0
 12 28  1  0  0  0  0
M  END
> <HYBRID receptor title>
5S18(A) > WOY(A-201)

> <HYBRID receptor filename>
experiments/data/docking/5s18.oedu

> <HYBRID Chemgauss4 score>
-8.781795

> <HYBRID receptor title>
5S18(A) > WOY(A-201)

> <HYBRID receptor filename>
experiments/data/docking/5s18.oedu

> <Dock Type>
Hybrid

$$$$
MOL0370
  -OEChem-07032415493D

 28 29  0     1  0  0  0  0  0999 V2000
   -1.0489   14.3320   -1.8584 C   0  0  0  0  0  0  0  0  0  0  0  0
    1.3485   14.4120   -1.9106 C   0  0  0  0  0  0  0  0  0  0  0  0
    0.2068   14.1287   -2.5524 C   0  0  0  0  0  0  0  0  0  0  0  0
   -1.1109   14.7937   -0.5974 C   0  0  0  0  0  0  0  0  0  0  0  0
    0.1829   15.1061    0.1068 C   0  0  0  0  0  0  0  0  0  0  0  0
   -2.4224   14.8780    1.4666 C   0  0  0  0  0  0  0  0  0  0  0  0
   -3.5318   15.3439   -0.5698 C   0  0  0  0  0  0  0  0  0  0  0  0
   -4.5274   15.5018    0.5831 C   0  0  1  0  0  0  0  0  0  0  0  0
   -5.7466   14.6070    0.4353 C   0  0  0  0  0  0  0  0  0  0  0  0
    0.1558   13.6108   -3.9545 C   0  0  0  0  0  0  0  0  0  0  0  0
    1.3384   14.8848   -0.6245 N   0  0  0  0  0  0  0  0  0  0  0  0
   -3.7636   15.1650    1.7637 N   0  0  0  0  0  0  0  0  0  0  0  0
   -2.2811   14.9914    0.0702 N   0  0  0  0  0  0  0  0  0  0  0  0
    0.1866   15.5308    1.2608 O   0  0  0  0  0  0  0  0  0  0  0  0
   -1.5585   14.5907    2.2856 O   0  0  0  0  0  0  0  0  0  0  0  0
   -1.1186   13.4119   -4.3520 F   0  0  0  0  0  0  0  0  0  0  0  0
    0.7255   14.4781   -4.8174 F   0  0  0  0  0  0  0  0  0  0  0  0
    0.8093   12.4347   -4.0615 F   0  0  0  0  0  0  0  0  0  0  0  0
   -1.9610   14.0950   -2.3998 H   0  0  0  0  0  0  0  0  0  0  0  0
    2.3274   14.2882   -2.3572 H   0  0  0  0  0  0  0  0  0  0  0  0
   -3.8088   14.5489   -1.2705 H   0  0  0  0  0  0  0  0  0  0  0  0
   -3.4004   16.2858   -1.1133 H   0  0  0  0  0  0  0  0  0  0  0  0
   -4.8375   16.5475    0.6853 H   0  0  0  0  0  0  0  0  0  0  0  0
   -5.4393   13.5649    0.3334 H   0  0  0  0  0  0  0  0  0  0  0  0
   -6.3183   14.8921   -0.4495 H   0  0  0  0  0  0  0  0  0  0  0  0
   -6.3904   14.6984    1.3127 H   0  0  0  0  0  0  0  0  0  0  0  0
    2.2356   15.0815   -0.1905 H   0  0  0  0  0  0  0  0  0  0  0  0
   -4.1532   15.1392    2.7008 H   0  0  0  0  0  0  0  0  0  0  0  0
  1  3  1  0  0  0  0
  1  4  2  0  0  0  0
  2  3  2  0  0  0  0
  2 11  1  0  0  0  0
  3 10  1  0  0  0  0
  4  5  1  0  0  0  0
  4 13  1  0  0  0  0
  5 11  1  0  0  0  0
  5 14  2  0  0  0  0
  6 12  1  0  0  0  0
  6 13  1  0  0  0  0
  6 15  2  0  0  0  0
  7  8  1  0  0  0  0
  7 13  1  0  0  0  0
  8  9  1  0  0  0  0
  8 12  1  0  0  0  0
 10 16  1  0  0  0  0
 10 17  1  0  0  0  0
 10 18  1  0  0  0  0
  1 19  1  0  0  0  0
  2 20  1  0  0  0  0
  7 21  1  0  0  0  0
  7 22  1  0  0  0  0
  8 23  1  0  0  0  0
  9 24  1  0  0  0  0
  9 25  1  0  0  0  0
  9 26  1  0  0  0  0
 11 27  1  0  0  0  0
 12 28  1  0  0  0  0
M  END
> <HYBRID receptor title>
5S18(A) > WOY(A-201)

> <HYBRID receptor filename>
experiments/data/docking/5s18.oedu

> <HYBRID Chemgauss4 score>
-8.732155

> <HYBRID receptor title>
5S18(A) > WOY(A-201)

> <HYBRID receptor filename>
experiments/data/docking/5s18.oedu

> <Dock Type>
Hybrid

$$$$
MOL0081
  -OEChem-07032415493D

 28 29  0     1  0  0  0  0  0999 V2000
   -0.8410   15.0407   -2.0778 C   0  0  0  0  0  0  0  0  0  0  0  0
    1.5572   15.0901   -2.0286 C   0  0  0  0  0  0  0  0  0  0  0  0
    0.4325   15.2209   -2.7452 C   0  0  0  0  0  0  0  0  0  0  0  0
   -0.9360   14.7481   -0.7693 C   0  0  0  0  0  0  0  0  0  0  0  0
    0.3392   14.6051    0.0188 C   0  0  0  0  0  0  0  0  0  0  0  0
   -2.3559   14.8586    1.2343 C   0  0  0  0  0  0  0  0  0  0  0  0
   -3.3144   14.0785   -0.7825 C   0  0  0  0  0  0  0  0  0  0  0  0
   -4.3706   14.0136    0.3246 C   0  0  2  0  0  0  0  0  0  0  0  0
   -5.6202   14.8126   -0.0056 C   0  0  0  0  0  0  0  0  0  0  0  0
    0.4181   15.5447   -4.2052 C   0  0  0  0  0  0  0  0  0  0  0  0
    1.5136   14.7923   -0.6918 N   0  0  0  0  0  0  0  0  0  0  0  0
   -3.6983   14.5400    1.4914 N   0  0  0  0  0  0  0  0  0  0  0  0
   -2.1233   14.5758   -0.1254 N   0  0  0  0  0  0  0  0  0  0  0  0
    0.3128   14.3381    1.2187 O   0  0  0  0  0  0  0  0  0  0  0  0
   -1.5587   15.2945    2.0553 O   0  0  0  0  0  0  0  0  0  0  0  0
   -0.8457   15.6169   -4.6736 F   0  0  0  0  0  0  0  0  0  0  0  0
    1.0159   16.7297   -4.4494 F   0  0  0  0  0  0  0  0  0  0  0  0
    1.0686   14.6010   -4.9180 F   0  0  0  0  0  0  0  0  0  0  0  0
   -1.7389   15.1518   -2.6803 H   0  0  0  0  0  0  0  0  0  0  0  0
    2.5476   15.2087   -2.4506 H   0  0  0  0  0  0  0  0  0  0  0  0
   -3.1063   13.0841   -1.1922 H   0  0  0  0  0  0  0  0  0  0  0  0
   -3.5845   14.7630   -1.5939 H   0  0  0  0  0  0  0  0  0  0  0  0
   -4.6355   12.9737    0.5451 H   0  0  0  0  0  0  0  0  0  0  0  0
   -5.3579   15.8487   -0.2255 H   0  0  0  0  0  0  0  0  0  0  0  0
   -6.3112   14.7975    0.8389 H   0  0  0  0  0  0  0  0  0  0  0  0
   -6.1220   14.3856   -0.8765 H   0  0  0  0  0  0  0  0  0  0  0  0
    2.3993   14.7057   -0.2018 H   0  0  0  0  0  0  0  0  0  0  0  0
   -4.1249   14.6136    2.4097 H   0  0  0  0  0  0  0  0  0  0  0  0
  1  3  1  0  0  0  0
  1  4  2  0  0  0  0
  2  3  2  0  0  0  0
  2 11  1  0  0  0  0
  3 10  1  0  0  0  0
  4  5  1  0  0  0  0
  4 13  1  0  0  0  0
  5 11  1  0  0  0  0
  5 14  2  0  0  0  0
  6 12  1  0  0  0  0
  6 13  1  0  0  0  0
  6 15  2  0  0  0  0
  7  8  1  0  0  0  0
  7 13  1  0  0  0  0
  8  9  1  0  0  0  0
  8 12  1  0  0  0  0
 10 16  1  0  0  0  0
 10 17  1  0  0  0  0
 10 18  1  0  0  0  0
  1 19  1  0  0  0  0
  2 20  1  0  0  0  0
  7 21  1  0  0  0  0
  7 22  1  0  0  0  0
  8 23  1  0  0  0  0
  9 24  1  0  0  0  0
  9 25  1  0  0  0  0
  9 26  1  0  0  0  0
 11 27  1  0  0  0  0
 12 28  1  0  0  0  0
M  END
> <HYBRID receptor title>
5S18(A) > WOY(A-201)

> <HYBRID receptor filename>
experiments/data/docking/5s18.oedu

> <HYBRID Chemgauss4 score>
-8.659800

> <HYBRID receptor title>
5S18(A) > WOY(A-201)

> <HYBRID receptor filename>
experiments/data/docking/5s18.oedu

> <Dock Type>
Hybrid

$$$$
MOL0189
  -OEChem-07032415493D

 32 33  0     1  0  0  0  0  0999 V2000
   -3.6198   14.4555   -1.2768 C   0  0  0  0  0  0  0  0  0  0  0  0
   -4.8048   14.7005    0.7950 C   0  0  0  0  0  0  0  0  0  0  0  0
   -4.8608   14.5199   -0.5316 C   0  0  0  0  0  0  0  0  0  0  0  0
   -2.4168   14.5697   -0.6880 C   0  0  0  0  0  0  0  0  0  0  0  0
   -2.3747   14.7723    0.8035 C   0  0  0  0  0  0  0  0  0  0  0  0
   -1.0078   14.9480   -2.7084 C   0  0  0  0  0  0  0  0  0  0  0  0
    0.0167   14.0334   -0.7217 C   0  0  0  0  0  0  0  0  0  0  0  0
    0.5187   14.9876   -2.8530 C   0  0  1  0  0  0  0  0  0  0  0  0
    0.9596   13.8567   -1.9159 C   0  0  1  0  0  0  0  0  0  0  0  0
    0.9881   14.8162   -4.2888 C   0  0  0  0  0  0  0  0  0  0  0  0
   -6.1414   14.3802   -1.2914 C   0  0  0  0  0  0  0  0  0  0  0  0
   -3.6030   14.8228    1.4420 N   0  0  0  0  0  0  0  0  0  0  0  0
   -1.2204   14.5180   -1.3283 N   0  0  3  0  0  0  0  0  0  0  0  0
    2.3663   13.9204   -1.5525 N   0  0  0  0  0  0  0  0  0  0  0  0
   -1.3044   14.8835    1.3986 O   0  0  0  0  0  0  0  0  0  0  0  0
   -5.9071   14.2092   -2.6096 F   0  0  0  0  0  0  0  0  0  0  0  0
   -6.8536   13.3186   -0.8589 F   0  0  0  0  0  0  0  0  0  0  0  0
   -6.9127   15.4787   -1.1489 F   0  0  0  0  0  0  0  0  0  0  0  0
   -3.6887   14.3089   -2.3514 H   0  0  0  0  0  0  0  0  0  0  0  0
   -5.6843   14.7599    1.4240 H   0  0  0  0  0  0  0  0  0  0  0  0
   -1.4443   15.9346   -2.8992 H   0  0  0  0  0  0  0  0  0  0  0  0
   -1.4611   14.2227   -3.3939 H   0  0  0  0  0  0  0  0  0  0  0  0
   -0.1284   13.0870   -0.1889 H   0  0  0  0  0  0  0  0  0  0  0  0
    0.3897   14.7823   -0.0123 H   0  0  0  0  0  0  0  0  0  0  0  0
    0.8839   15.9522   -2.4733 H   0  0  0  0  0  0  0  0  0  0  0  0
    0.7640   12.8849   -2.3887 H   0  0  0  0  0  0  0  0  0  0  0  0
    0.6369   13.8636   -4.6879 H   0  0  0  0  0  0  0  0  0  0  0  0
    2.0780   14.8352   -4.3328 H   0  0  0  0  0  0  0  0  0  0  0  0
    0.5974   15.6233   -4.9114 H   0  0  0  0  0  0  0  0  0  0  0  0
   -3.6135   14.9583    2.4487 H   0  0  0  0  0  0  0  0  0  0  0  0
    2.9355   13.7865   -2.3862 H   0  0  0  0  0  0  0  0  0  0  0  0
    2.5884   13.1465   -0.9285 H   0  0  0  0  0  0  0  0  0  0  0  0
  1  3  1  0  0  0  0
  1  4  2  0  0  0  0
  2  3  2  0  0  0  0
  2 12  1  0  0  0  0
  3 11  1  0  0  0  0
  4  5  1  0  0  0  0
  4 13  1  0  0  0  0
  5 12  1  0  0  0  0
  5 15  2  0  0  0  0
  6  8  1  0  0  0  0
  6 13  1  0  0  0  0
  7  9  1  0  0  0  0
  7 13  1  0  0  0  0
  8  9  1  0  0  0  0
  8 10  1  0  0  0  0
  9 14  1  0  0  0  0
 11 16  1  0  0  0  0
 11 17  1  0  0  0  0
 11 18  1  0  0  0  0
  1 19  1  0  0  0  0
  2 20  1  0  0  0  0
  6 21  1  0  0  0  0
  6 22  1  0  0  0  0
  7 23  1  0  0  0  0
  7 24  1  0  0  0  0
  8 25  1  0  0  0  0
  9 26  1  0  0  0  0
 10 27  1  0  0  0  0
 10 28  1  0  0  0  0
 10 29  1  0  0  0  0
 12 30  1  0  0  0  0
 14 31  1  0  0  0  0
 14 32  1  0  0  0  0
M  END
> <HYBRID receptor title>
5S18(A) > WOY(A-201)

> <HYBRID receptor filename>
experiments/data/docking/5s18.oedu

> <HYBRID Chemgauss4 score>
-8.636896

> <HYBRID receptor title>
5S18(A) > WOY(A-201)

> <HYBRID receptor filename>
experiments/data/docking/5s18.oedu

> <Dock Type>
Hybrid

$$$$
MOL0246
  -OEChem-07032415493D

 27 28  0     0  0  0  0  0  0999 V2000
    1.1489   13.0530   -4.2188 C   0  0  0  0  0  0  0  0  0  0  0  0
    1.1719   12.4681   -2.9527 C   0  0  0  0  0  0  0  0  0  0  0  0
    0.5287   14.2885   -4.4045 C   0  0  0  0  0  0  0  0  0  0  0  0
    0.5751   13.1184   -1.8725 C   0  0  0  0  0  0  0  0  0  0  0  0
   -0.0681   14.9388   -3.3243 C   0  0  0  0  0  0  0  0  0  0  0  0
   -0.0452   14.3539   -2.0582 C   0  0  0  0  0  0  0  0  0  0  0  0
   -2.9885   14.6142   -1.3445 C   0  0  0  0  0  0  0  0  0  0  0  0
   -4.5431   14.6756    0.4821 C   0  0  0  0  0  0  0  0  0  0  0  0
   -4.3387   14.5009   -0.8307 C   0  0  0  0  0  0  0  0  0  0  0  0
   -1.9355   14.8871   -0.5547 C   0  0  0  0  0  0  0  0  0  0  0  0
   -2.1857   15.0802    0.9176 C   0  0  0  0  0  0  0  0  0  0  0  0
   -5.4336   14.1934   -1.8021 C   0  0  0  0  0  0  0  0  0  0  0  0
   -3.5028   14.9558    1.3288 N   0  0  0  0  0  0  0  0  0  0  0  0
   -0.6443   15.0064   -0.9750 N   0  0  0  0  0  0  0  0  0  0  0  0
   -1.2629   15.3325    1.6901 O   0  0  0  0  0  0  0  0  0  0  0  0
   -4.9489   14.0680   -3.0555 F   0  0  0  0  0  0  0  0  0  0  0  0
   -6.0590   13.0403   -1.4853 F   0  0  0  0  0  0  0  0  0  0  0  0
   -6.3606   15.1744   -1.8149 F   0  0  0  0  0  0  0  0  0  0  0  0
    1.6128   12.5462   -5.0598 H   0  0  0  0  0  0  0  0  0  0  0  0
    1.6551   11.5061   -2.8080 H   0  0  0  0  0  0  0  0  0  0  0  0
    0.5109   14.7440   -5.3904 H   0  0  0  0  0  0  0  0  0  0  0  0
    0.5982   12.6526   -0.8907 H   0  0  0  0  0  0  0  0  0  0  0  0
   -0.5485   15.9016   -3.4799 H   0  0  0  0  0  0  0  0  0  0  0  0
   -2.8457   14.4690   -2.4119 H   0  0  0  0  0  0  0  0  0  0  0  0
   -5.5198   14.6079    0.9453 H   0  0  0  0  0  0  0  0  0  0  0  0
   -3.7094   15.0796    2.3156 H   0  0  0  0  0  0  0  0  0  0  0  0
   -0.0491   15.6321   -0.4542 H   0  0  0  0  0  0  0  0  0  0  0  0
  1  2  1  0  0  0  0
  1  3  2  0  0  0  0
  2  4  2  0  0  0  0
  3  5  1  0  0  0  0
  4  6  1  0  0  0  0
  5  6  2  0  0  0  0
  6 14  1  0  0  0  0
  7  9  1  0  0  0  0
  7 10  2  0  0  0  0
  8  9  2  0  0  0  0
  8 13  1  0  0  0  0
  9 12  1  0  0  0  0
 10 11  1  0  0  0  0
 10 14  1  0  0  0  0
 11 13  1  0  0  0  0
 11 15  2  0  0  0  0
 12 16  1  0  0  0  0
 12 17  1  0  0  0  0
 12 18  1  0  0  0  0
  1 19  1  0  0  0  0
  2 20  1  0  0  0  0
  3 21  1  0  0  0  0
  4 22  1  0  0  0  0
  5 23  1  0  0  0  0
  7 24  1  0  0  0  0
  8 25  1  0  0  0  0
 13 26  1  0  0  0  0
 14 27  1  0  0  0  0
M  END
> <HYBRID receptor title>
5S18(A) > WOY(A-201)

> <HYBRID receptor filename>
experiments/data/docking/5s18.oedu

> <HYBRID Chemgauss4 score>
-8.504547

> <HYBRID receptor title>
5S18(A) > WOY(A-201)

> <HYBRID receptor filename>
experiments/data/docking/5s18.oedu

> <Dock Type>
Hybrid

$$$$
MOL0111
  -OEChem-07032415493D

 31 32  0     0  0  0  0  0  0999 V2000
   -3.6418   14.5228   -1.2823 C   0  0  0  0  0  0  0  0  0  0  0  0
   -4.8302   14.8277    0.7796 C   0  0  0  0  0  0  0  0  0  0  0  0
   -4.8791   14.5404   -0.5283 C   0  0  0  0  0  0  0  0  0  0  0  0
   -2.4491   14.7830   -0.7195 C   0  0  0  0  0  0  0  0  0  0  0  0
   -2.4149   15.1039    0.7513 C   0  0  0  0  0  0  0  0  0  0  0  0
   -0.0101   14.4399   -0.8715 C   0  0  0  0  0  0  0  0  0  0  0  0
   -1.1777   15.0892   -2.8265 C   0  0  0  0  0  0  0  0  0  0  0  0
    0.3188   14.9765   -3.1645 C   0  0  0  0  0  0  0  0  0  0  0  0
    0.5680   13.9283   -4.2496 C   0  0  0  0  0  0  0  0  0  0  0  0
    0.8943   16.3300   -3.5863 C   0  0  0  0  0  0  0  0  0  0  0  0
   -6.1482   14.2348   -1.2584 C   0  0  0  0  0  0  0  0  0  0  0  0
   -3.6391   15.1005    1.3998 N   0  0  0  0  0  0  0  0  0  0  0  0
    0.9211   14.5514   -1.9129 N   0  0  0  0  0  0  0  0  0  0  0  0
   -1.2769   14.7706   -1.4116 N   0  0  0  0  0  0  0  0  0  0  0  0
   -1.3523   15.3503    1.3188 O   0  0  0  0  0  0  0  0  0  0  0  0
    0.2462   14.1150    0.2812 O   0  0  0  0  0  0  0  0  0  0  0  0
   -5.9087   13.9821   -2.5624 F   0  0  0  0  0  0  0  0  0  0  0  0
   -6.7649   13.1541   -0.7361 F   0  0  0  0  0  0  0  0  0  0  0  0
   -7.0088   15.2724   -1.1909 F   0  0  0  0  0  0  0  0  0  0  0  0
   -3.7075   14.2872   -2.3413 H   0  0  0  0  0  0  0  0  0  0  0  0
   -5.7077   14.8616    1.4136 H   0  0  0  0  0  0  0  0  0  0  0  0
   -1.5742   16.0987   -2.9830 H   0  0  0  0  0  0  0  0  0  0  0  0
   -1.7920   14.3711   -3.3815 H   0  0  0  0  0  0  0  0  0  0  0  0
    1.6324   13.8708   -4.4672 H   0  0  0  0  0  0  0  0  0  0  0  0
    0.0314   14.2027   -5.1554 H   0  0  0  0  0  0  0  0  0  0  0  0
    0.2193   12.9551   -3.9078 H   0  0  0  0  0  0  0  0  0  0  0  0
    1.9512   16.2222   -3.8192 H   0  0  0  0  0  0  0  0  0  0  0  0
    0.7763   17.0466   -2.7767 H   0  0  0  0  0  0  0  0  0  0  0  0
    0.3681   16.6939   -4.4670 H   0  0  0  0  0  0  0  0  0  0  0  0
   -3.6655   15.3113    2.3932 H   0  0  0  0  0  0  0  0  0  0  0  0
    1.9132   14.3704   -1.7948 H   0  0  0  0  0  0  0  0  0  0  0  0
  1  3  1  0  0  0  0
  1  4  2  0  0  0  0
  2  3  2  0  0  0  0
  2 12  1  0  0  0  0
  3 11  1  0  0  0  0
  4  5  1  0  0  0  0
  4 14  1  0  0  0  0
  5 12  1  0  0  0  0
  5 15  2  0  0  0  0
  6 13  1  0  0  0  0
  6 14  1  0  0  0  0
  6 16  2  0  0  0  0
  7  8  1  0  0  0  0
  7 14  1  0  0  0  0
  8  9  1  0  0  0  0
  8 10  1  0  0  0  0
  8 13  1  0  0  0  0
 11 17  1  0  0  0  0
 11 18  1  0  0  0  0
 11 19  1  0  0  0  0
  1 20  1  0  0  0  0
  2 21  1  0  0  0  0
  7 22  1  0  0  0  0
  7 23  1  0  0  0  0
  9 24  1  0  0  0  0
  9 25  1  0  0  0  0
  9 26  1  0  0  0  0
 10 27  1  0  0  0  0
 10 28  1  0  0  0  0
 10 29  1  0  0  0  0
 12 30  1  0  0  0  0
 13 31  1  0  0  0  0
M  END
> <HYBRID receptor title>
5S18(A) > WOY(A-201)

> <HYBRID receptor filename>
experiments/data/docking/5s18.oedu

> <HYBRID Chemgauss4 score>
-8.483957

> <HYBRID receptor title>
5S18(A) > WOY(A-201)

> <HYBRID receptor filename>
experiments/data/docking/5s18.oedu

> <Dock Type>
Hybrid

$$$$
MOL0422
  -OEChem-07032415493D

 36 37  0     1  0  0  0  0  0999 V2000
   -3.8220   14.6177   -0.9867 C   0  0  0  0  0  0  0  0  0  0  0  0
   -5.0037   14.6488    1.1012 C   0  0  0  0  0  0  0  0  0  0  0  0
   -5.0595   14.5615   -0.2348 C   0  0  0  0  0  0  0  0  0  0  0  0
   -2.6227   14.7536   -0.3950 C   0  0  0  0  0  0  0  0  0  0  0  0
   -2.5809   14.8501    1.1071 C   0  0  0  0  0  0  0  0  0  0  0  0
   -0.2240   14.3726   -0.6191 C   0  0  0  0  0  0  0  0  0  0  0  0
   -1.3556   15.2581   -2.4390 C   0  0  0  0  0  0  0  0  0  0  0  0
    0.1417   15.3818   -2.6398 C   0  0  2  0  0  0  0  0  0  0  0  0
    2.1522   14.9086   -4.0589 C   0  0  0  0  0  0  0  0  0  0  0  0
    0.0379   15.7415   -5.1178 C   0  0  0  0  0  0  0  0  0  0  0  0
    0.1436   13.4137   -4.1916 C   0  0  0  0  0  0  0  0  0  0  0  0
   -6.3363   14.4082   -0.9985 C   0  0  0  0  0  0  0  0  0  0  0  0
    0.6132   14.8679   -3.9856 C   0  0  0  0  0  0  0  0  0  0  0  0
   -3.8057   14.7884    1.7516 N   0  0  0  0  0  0  0  0  0  0  0  0
   -1.4505   14.8078   -1.0845 N   0  0  0  0  0  0  0  0  0  0  0  0
   -1.5121   14.9756    1.7019 O   0  0  0  0  0  0  0  0  0  0  0  0
    0.0330   13.8615    0.4628 O   0  0  0  0  0  0  0  0  0  0  0  0
    0.7243   14.5867   -1.5895 O   0  0  0  0  0  0  0  0  0  0  0  0
   -6.1026   14.3455   -2.3263 F   0  0  0  0  0  0  0  0  0  0  0  0
   -6.9876   13.2815   -0.6414 F   0  0  0  0  0  0  0  0  0  0  0  0
   -7.1639   15.4506   -0.7744 F   0  0  0  0  0  0  0  0  0  0  0  0
   -3.8933   14.5449   -2.0688 H   0  0  0  0  0  0  0  0  0  0  0  0
   -5.8808   14.6152    1.7358 H   0  0  0  0  0  0  0  0  0  0  0  0
   -1.8710   16.2132   -2.5822 H   0  0  0  0  0  0  0  0  0  0  0  0
   -1.8074   14.5004   -3.0892 H   0  0  0  0  0  0  0  0  0  0  0  0
    0.4755   16.4158   -2.4929 H   0  0  0  0  0  0  0  0  0  0  0  0
    2.5071   14.5393   -5.0276 H   0  0  0  0  0  0  0  0  0  0  0  0
    2.5976   14.2790   -3.2794 H   0  0  0  0  0  0  0  0  0  0  0  0
    2.5398   15.9252   -3.9275 H   0  0  0  0  0  0  0  0  0  0  0  0
    0.3716   15.3801   -6.0968 H   0  0  0  0  0  0  0  0  0  0  0  0
   -1.0578   15.7183   -5.1100 H   0  0  0  0  0  0  0  0  0  0  0  0
    0.3502   16.7873   -5.0244 H   0  0  0  0  0  0  0  0  0  0  0  0
    0.4781   13.0301   -5.1615 H   0  0  0  0  0  0  0  0  0  0  0  0
   -0.9484   13.3301   -4.1587 H   0  0  0  0  0  0  0  0  0  0  0  0
    0.5520   12.7579   -3.4143 H   0  0  0  0  0  0  0  0  0  0  0  0
   -3.8272   14.8494    2.7653 H   0  0  0  0  0  0  0  0  0  0  0  0
  1  3  1  0  0  0  0
  1  4  2  0  0  0  0
  2  3  2  0  0  0  0
  2 14  1  0  0  0  0
  3 12  1  0  0  0  0
  4  5  1  0  0  0  0
  4 15  1  0  0  0  0
  5 14  1  0  0  0  0
  5 16  2  0  0  0  0
  6 15  1  0  0  0  0
  6 17  2  0  0  0  0
  6 18  1  0  0  0  0
  7  8  1  0  0  0  0
  7 15  1  0  0  0  0
  8 13  1  0  0  0  0
  8 18  1  0  0  0  0
  9 13  1  0  0  0  0
 10 13  1  0  0  0  0
 11 13  1  0  0  0  0
 12 19  1  0  0  0  0
 12 20  1  0  0  0  0
 12 21  1  0  0  0  0
  1 22  1  0  0  0  0
  2 23  1  0  0  0  0
  7 24  1  0  0  0  0
  7 25  1  0  0  0  0
  8 26  1  0  0  0  0
  9 27  1  0  0  0  0
  9 28  1  0  0  0  0
  9 29  1  0  0  0  0
 10 30  1  0  0  0  0
 10 31  1  0  0  0  0
 10 32  1  0  0  0  0
 11 33  1  0  0  0  0
 11 34  1  0  0  0  0
 11 35  1  0  0  0  0
 14 36  1  0  0  0  0
M  END
> <HYBRID receptor title>
5S18(A) > WOY(A-201)

> <HYBRID receptor filename>
experiments/data/docking/5s18.oedu

> <HYBRID Chemgauss4 score>
-8.423723

> <HYBRID receptor title>
5S18(A) > WOY(A-201)

> <HYBRID receptor filename>
experiments/data/docking/5s18.oedu

> <Dock Type>
Hybrid

$$$$
MOL0147
  -OEChem-07032415493D

 27 28  0     1  0  0  0  0  0999 V2000
   -3.0027   14.5542   -1.0743 C   0  0  0  0  0  0  0  0  0  0  0  0
   -2.5500   14.6982    1.3110 C   0  0  0  0  0  0  0  0  0  0  0  0
   -2.1128   14.6523    0.0488 C   0  0  0  0  0  0  0  0  0  0  0  0
   -4.3146   14.5096   -0.8161 C   0  0  0  0  0  0  0  0  0  0  0  0
   -4.8711   14.5575    0.5632 C   0  0  0  0  0  0  0  0  0  0  0  0
    0.2385   14.7934    0.7515 C   0  0  0  0  0  0  0  0  0  0  0  0
   -0.2377   14.6425   -1.5604 C   0  0  0  0  0  0  0  0  0  0  0  0
    1.2774   14.7652   -1.3747 C   0  0  2  0  0  0  0  0  0  0  0  0
    2.0426   13.6072   -1.9932 C   0  0  0  0  0  0  0  0  0  0  0  0
   -3.9046   14.6516    1.5633 N   0  0  0  0  0  0  0  0  0  0  0  0
    1.4590   14.8143    0.0589 N   0  0  0  0  0  0  0  0  0  0  0  0
   -0.7779   14.6977   -0.2179 N   0  0  0  0  0  0  0  0  0  0  0  0
   -5.2541   14.4160   -1.8082 N   0  0  0  0  0  0  0  0  0  0  0  0
   -6.0779   14.5165    0.7864 O   0  0  0  0  0  0  0  0  0  0  0  0
    0.1101   14.8524    1.9679 O   0  0  0  0  0  0  0  0  0  0  0  0
   -2.6100   14.5186   -2.0845 H   0  0  0  0  0  0  0  0  0  0  0  0
   -1.9080   14.7717    2.1799 H   0  0  0  0  0  0  0  0  0  0  0  0
   -0.6366   15.4823   -2.1398 H   0  0  0  0  0  0  0  0  0  0  0  0
   -0.5381   13.6974   -2.0258 H   0  0  0  0  0  0  0  0  0  0  0  0
    1.6405   15.7160   -1.7799 H   0  0  0  0  0  0  0  0  0  0  0  0
    1.6820   12.6592   -1.5905 H   0  0  0  0  0  0  0  0  0  0  0  0
    3.1076   13.6991   -1.7736 H   0  0  0  0  0  0  0  0  0  0  0  0
    1.9076   13.6017   -3.0769 H   0  0  0  0  0  0  0  0  0  0  0  0
   -4.2151   14.6879    2.5298 H   0  0  0  0  0  0  0  0  0  0  0  0
    2.3600   14.9163    0.5157 H   0  0  0  0  0  0  0  0  0  0  0  0
   -4.9425   14.3804   -2.7517 H   0  0  0  0  0  0  0  0  0  0  0  0
   -6.2131   14.3870   -1.5492 H   0  0  0  0  0  0  0  0  0  0  0  0
  1  3  1  0  0  0  0
  1  4  2  0  0  0  0
  2  3  2  0  0  0  0
  2 10  1  0  0  0  0
  3 12  1  0  0  0  0
  4  5  1  0  0  0  0
  4 13  1  0  0  0  0
  5 10  1  0  0  0  0
  5 14  2  0  0  0  0
  6 11  1  0  0  0  0
  6 12  1  0  0  0  0
  6 15  2  0  0  0  0
  7  8  1  0  0  0  0
  7 12  1  0  0  0  0
  8  9  1  0  0  0  0
  8 11  1  0  0  0  0
  1 16  1  0  0  0  0
  2 17  1  0  0  0  0
  7 18  1  0  0  0  0
  7 19  1  0  0  0  0
  8 20  1  0  0  0  0
  9 21  1  0  0  0  0
  9 22  1  0  0  0  0
  9 23  1  0  0  0  0
 10 24  1  0  0  0  0
 11 25  1  0  0  0  0
 13 26  1  0  0  0  0
 13 27  1  0  0  0  0
M  END
> <HYBRID receptor title>
5S18(A) > WOY(A-201)

> <HYBRID receptor filename>
experiments/data/docking/5s18.oedu

> <HYBRID Chemgauss4 score>
-8.402574

> <HYBRID receptor title>
5S18(A) > WOY(A-201)

> <HYBRID receptor filename>
experiments/data/docking/5s18.oedu

> <Dock Type>
Hybrid

$$$$
MOL0322
  -OEChem-07032415493D

 33 34  0     1  0  0  0  0  0999 V2000
   -3.9320   14.4066   -1.1334 C   0  0  0  0  0  0  0  0  0  0  0  0
   -5.0986   14.6642    0.9473 C   0  0  0  0  0  0  0  0  0  0  0  0
   -5.1633   14.4250   -0.3696 C   0  0  0  0  0  0  0  0  0  0  0  0
   -2.7298   14.6196   -0.5710 C   0  0  0  0  0  0  0  0  0  0  0  0
   -2.6780   14.8868    0.9100 C   0  0  0  0  0  0  0  0  0  0  0  0
   -0.3291   14.2373   -0.7705 C   0  0  0  0  0  0  0  0  0  0  0  0
   -1.4827   14.8997   -2.6698 C   0  0  0  0  0  0  0  0  0  0  0  0
    0.0118   15.0134   -2.8959 C   0  0  2  0  0  0  0  0  0  0  0  0
    1.8265   14.9239   -4.6278 C   0  0  0  0  0  0  0  0  0  0  0  0
    0.5764   12.8354   -4.0092 C   0  0  0  0  0  0  0  0  0  0  0  0
    0.4785   14.3539   -4.1784 C   0  0  0  0  0  0  0  0  0  0  0  0
   -6.4440   14.1743   -1.1002 C   0  0  0  0  0  0  0  0  0  0  0  0
   -3.8973   14.8878    1.5675 N   0  0  0  0  0  0  0  0  0  0  0  0
   -1.5632   14.6056   -1.2721 N   0  0  0  0  0  0  0  0  0  0  0  0
   -1.6061   15.0888    1.4776 O   0  0  0  0  0  0  0  0  0  0  0  0
   -0.0591   13.8550    0.3603 O   0  0  0  0  0  0  0  0  0  0  0  0
    0.6099   14.3481   -1.7669 O   0  0  0  0  0  0  0  0  0  0  0  0
   -6.2195   13.9631   -2.4142 F   0  0  0  0  0  0  0  0  0  0  0  0
   -7.0815   13.0897   -0.6119 F   0  0  0  0  0  0  0  0  0  0  0  0
   -7.2803   15.2280   -0.9891 F   0  0  0  0  0  0  0  0  0  0  0  0
   -4.0104   14.2105   -2.1996 H   0  0  0  0  0  0  0  0  0  0  0  0
   -5.9707   14.6952    1.5889 H   0  0  0  0  0  0  0  0  0  0  0  0
   -2.0086   15.8276   -2.9163 H   0  0  0  0  0  0  0  0  0  0  0  0
   -1.9317   14.0690   -3.2257 H   0  0  0  0  0  0  0  0  0  0  0  0
    0.3364   16.0603   -2.8703 H   0  0  0  0  0  0  0  0  0  0  0  0
    2.5939   14.7431   -3.8678 H   0  0  0  0  0  0  0  0  0  0  0  0
    1.7639   16.0050   -4.7892 H   0  0  0  0  0  0  0  0  0  0  0  0
    2.1597   14.4602   -5.5627 H   0  0  0  0  0  0  0  0  0  0  0  0
    1.2977   12.5705   -3.2288 H   0  0  0  0  0  0  0  0  0  0  0  0
   -0.3926   12.4055   -3.7346 H   0  0  0  0  0  0  0  0  0  0  0  0
    0.9039   12.3648   -4.9416 H   0  0  0  0  0  0  0  0  0  0  0  0
   -0.2566   14.5591   -4.9709 H   0  0  0  0  0  0  0  0  0  0  0  0
   -3.9120   15.0635    2.5679 H   0  0  0  0  0  0  0  0  0  0  0  0
  1  3  1  0  0  0  0
  1  4  2  0  0  0  0
  2  3  2  0  0  0  0
  2 13  1  0  0  0  0
  3 12  1  0  0  0  0
  4  5  1  0  0  0  0
  4 14  1  0  0  0  0
  5 13  1  0  0  0  0
  5 15  2  0  0  0  0
  6 14  1  0  0  0  0
  6 16  2  0  0  0  0
  6 17  1  0  0  0  0
  7  8  1  0  0  0  0
  7 14  1  0  0  0  0
  8 11  1  0  0  0  0
  8 17  1  0  0  0  0
  9 11  1  0  0  0  0
 10 11  1  0  0  0  0
 12 18  1  0  0  0  0
 12 19  1  0  0  0  0
 12 20  1  0  0  0  0
  1 21  1  0  0  0  0
  2 22  1  0  0  0  0
  7 23  1  0  0  0  0
  7 24  1  0  0  0  0
  8 25  1  0  0  0  0
  9 26  1  0  0  0  0
  9 27  1  0  0  0  0
  9 28  1  0  0  0  0
 10 29  1  0  0  0  0
 10 30  1  0  0  0  0
 10 31  1  0  0  0  0
 11 32  1  0  0  0  0
 13 33  1  0  0  0  0
M  END
> <HYBRID receptor title>
5S18(A) > WOY(A-201)

> <HYBRID receptor filename>
experiments/data/docking/5s18.oedu

> <HYBRID Chemgauss4 score>
-8.347677

> <HYBRID receptor title>
5S18(A) > WOY(A-201)

> <HYBRID receptor filename>
experiments/data/docking/5s18.oedu

> <Dock Type>
Hybrid

$$$$
MOL0324
  -OEChem-07032415493D

 27 27  0     0  0  0  0  0  0999 V2000
   -2.1487   14.5624   -0.7418 C   0  0  0  0  0  0  0  0  0  0  0  0
   -4.0471   14.8782    0.6910 C   0  0  0  0  0  0  0  0  0  0  0  0
   -3.5806   14.6708   -0.5480 C   0  0  0  0  0  0  0  0  0  0  0  0
   -1.2727   14.6615    0.2730 C   0  0  0  0  0  0  0  0  0  0  0  0
   -1.8164   14.8946    1.6577 C   0  0  0  0  0  0  0  0  0  0  0  0
    0.6997   14.3468   -1.1202 C   0  0  0  0  0  0  0  0  0  0  0  0
    3.1965   15.3719   -2.8532 C   0  0  0  0  0  0  0  0  0  0  0  0
    2.9823   14.0767   -2.0890 C   0  0  0  0  0  0  0  0  0  0  0  0
   -4.4613   14.5442   -1.7501 C   0  0  0  0  0  0  0  0  0  0  0  0
   -3.1950   14.9866    1.7587 N   0  0  0  0  0  0  0  0  0  0  0  0
    0.0755   14.5617    0.1100 N   0  0  0  0  0  0  0  0  0  0  0  0
    2.0850   14.2896   -0.9774 N   0  0  0  0  0  0  0  0  0  0  0  0
   -1.0619   14.9936    2.6235 O   0  0  0  0  0  0  0  0  0  0  0  0
    0.1098   14.2234   -2.1937 O   0  0  0  0  0  0  0  0  0  0  0  0
   -3.7313   14.3401   -2.8669 F   0  0  0  0  0  0  0  0  0  0  0  0
   -5.3171   13.5086   -1.6227 F   0  0  0  0  0  0  0  0  0  0  0  0
   -5.1936   15.6629   -1.9352 F   0  0  0  0  0  0  0  0  0  0  0  0
   -1.7949   14.3944   -1.7557 H   0  0  0  0  0  0  0  0  0  0  0  0
   -5.1014   14.9708    0.9209 H   0  0  0  0  0  0  0  0  0  0  0  0
    3.6206   16.1338   -2.1916 H   0  0  0  0  0  0  0  0  0  0  0  0
    2.2527   15.7592   -3.2516 H   0  0  0  0  0  0  0  0  0  0  0  0
    3.8885   15.2281   -3.6900 H   0  0  0  0  0  0  0  0  0  0  0  0
    2.5582   13.3199   -2.7569 H   0  0  0  0  0  0  0  0  0  0  0  0
    3.9418   13.6991   -1.7207 H   0  0  0  0  0  0  0  0  0  0  0  0
   -3.6078   15.1436    2.6735 H   0  0  0  0  0  0  0  0  0  0  0  0
    0.6540   14.6507    0.9414 H   0  0  0  0  0  0  0  0  0  0  0  0
    2.4877   14.4463   -0.0584 H   0  0  0  0  0  0  0  0  0  0  0  0
  1  3  1  0  0  0  0
  1  4  2  0  0  0  0
  2  3  2  0  0  0  0
  2 10  1  0  0  0  0
  3  9  1  0  0  0  0
  4  5  1  0  0  0  0
  4 11  1  0  0  0  0
  5 10  1  0  0  0  0
  5 13  2  0  0  0  0
  6 11  1  0  0  0  0
  6 12  1  0  0  0  0
  6 14  2  0  0  0  0
  7  8  1  0  0  0  0
  8 12  1  0  0  0  0
  9 15  1  0  0  0  0
  9 16  1  0  0  0  0
  9 17  1  0  0  0  0
  1 18  1  0  0  0  0
  2 19  1  0  0  0  0
  7 20  1  0  0  0  0
  7 21  1  0  0  0  0
  7 22  1  0  0  0  0
  8 23  1  0  0  0  0
  8 24  1  0  0  0  0
 10 25  1  0  0  0  0
 11 26  1  0  0  0  0
 12 27  1  0  0  0  0
M  END
> <HYBRID receptor title>
5S18(A) > WOY(A-201)

> <HYBRID receptor filename>
experiments/data/docking/5s18.oedu

> <HYBRID Chemgauss4 score>
-8.346415

> <HYBRID receptor title>
5S18(A) > WOY(A-201)

> <HYBRID receptor filename>
experiments/data/docking/5s18.oedu

> <Dock Type>
Hybrid

$$$$
MOL0036
  -OEChem-07032415493D

 30 31  0     0  0  0  0  0  0999 V2000
   -4.3381   14.4252   -1.0533 C   0  0  0  0  0  0  0  0  0  0  0  0
   -5.3236   14.6420    1.1235 C   0  0  0  0  0  0  0  0  0  0  0  0
   -5.5027   14.4589   -0.1918 C   0  0  0  0  0  0  0  0  0  0  0  0
   -3.0871   14.5699   -0.5829 C   0  0  0  0  0  0  0  0  0  0  0  0
   -2.9065   14.7746    0.8979 C   0  0  0  0  0  0  0  0  0  0  0  0
   -1.7690   14.3765   -2.7514 C   0  0  0  0  0  0  0  0  0  0  0  0
   -0.6135   14.9633   -1.0331 C   0  0  0  0  0  0  0  0  0  0  0  0
   -0.2515   14.5190   -2.4727 C   0  0  0  0  0  0  0  0  0  0  0  0
    0.4334   15.6001   -3.3022 C   0  0  0  0  0  0  0  0  0  0  0  0
    0.5086   13.1939   -2.5311 C   0  0  0  0  0  0  0  0  0  0  0  0
   -6.8467   14.2866   -0.8249 C   0  0  0  0  0  0  0  0  0  0  0  0
   -4.0685   14.7948    1.6519 N   0  0  0  0  0  0  0  0  0  0  0  0
   -1.9680   14.5479   -1.3283 N   0  0  0  0  0  0  0  0  0  0  0  0
   -1.7870   14.9131    1.3873 O   0  0  0  0  0  0  0  0  0  0  0  0
   -6.7363   14.1205   -2.1598 F   0  0  0  0  0  0  0  0  0  0  0  0
   -7.4871   13.2078   -0.3275 F   0  0  0  0  0  0  0  0  0  0  0  0
   -7.6278   15.3655   -0.6069 F   0  0  0  0  0  0  0  0  0  0  0  0
   -4.5066   14.2760   -2.1164 H   0  0  0  0  0  0  0  0  0  0  0  0
   -6.1396   14.6797    1.8345 H   0  0  0  0  0  0  0  0  0  0  0  0
   -2.2373   15.1840   -3.3224 H   0  0  0  0  0  0  0  0  0  0  0  0
   -2.1140   13.4028   -3.1088 H   0  0  0  0  0  0  0  0  0  0  0  0
   -0.1685   14.3904   -0.2153 H   0  0  0  0  0  0  0  0  0  0  0  0
   -0.5584   16.0363   -0.8260 H   0  0  0  0  0  0  0  0  0  0  0  0
    1.4933   15.6428   -3.0542 H   0  0  0  0  0  0  0  0  0  0  0  0
   -0.0190   16.5692   -3.0952 H   0  0  0  0  0  0  0  0  0  0  0  0
    0.3260   15.3779   -4.3640 H   0  0  0  0  0  0  0  0  0  0  0  0
    1.5635   13.3657   -2.3271 H   0  0  0  0  0  0  0  0  0  0  0  0
    0.4026   12.7525   -3.5200 H   0  0  0  0  0  0  0  0  0  0  0  0
    0.1078   12.5064   -1.7879 H   0  0  0  0  0  0  0  0  0  0  0  0
   -3.9853   14.9308    2.6551 H   0  0  0  0  0  0  0  0  0  0  0  0
  1  3  1  0  0  0  0
  1  4  2  0  0  0  0
  2  3  2  0  0  0  0
  2 12  1  0  0  0  0
  3 11  1  0  0  0  0
  4  5  1  0  0  0  0
  4 13  1  0  0  0  0
  5 12  1  0  0  0  0
  5 14  2  0  0  0  0
  6  8  1  0  0  0  0
  6 13  1  0  0  0  0
  7  8  1  0  0  0  0
  7 13  1  0  0  0  0
  8  9  1  0  0  0  0
  8 10  1  0  0  0  0
 11 15  1  0  0  0  0
 11 16  1  0  0  0  0
 11 17  1  0  0  0  0
  1 18  1  0  0  0  0
  2 19  1  0  0  0  0
  6 20  1  0  0  0  0
  6 21  1  0  0  0  0
  7 22  1  0  0  0  0
  7 23  1  0  0  0  0
  9 24  1  0  0  0  0
  9 25  1  0  0  0  0
  9 26  1  0  0  0  0
 10 27  1  0  0  0  0
 10 28  1  0  0  0  0
 10 29  1  0  0  0  0
 12 30  1  0  0  0  0
M  END
> <HYBRID receptor title>
5S18(A) > WOY(A-201)

> <HYBRID receptor filename>
experiments/data/docking/5s18.oedu

> <HYBRID Chemgauss4 score>
-8.319479

> <HYBRID receptor title>
5S18(A) > WOY(A-201)

> <HYBRID receptor filename>
experiments/data/docking/5s18.oedu

> <Dock Type>
Hybrid

$$$$
MOL0268
  -OEChem-07032415493D

 29 29  0     0  0  0  0  0  0999 V2000
   -4.0266   14.6986   -0.8896 C   0  0  0  0  0  0  0  0  0  0  0  0
   -5.1608   14.8237    1.2210 C   0  0  0  0  0  0  0  0  0  0  0  0
   -5.2482   14.6969   -0.1102 C   0  0  0  0  0  0  0  0  0  0  0  0
   -2.8115   14.8219   -0.3281 C   0  0  0  0  0  0  0  0  0  0  0  0
   -2.7342   14.9634    1.1691 C   0  0  0  0  0  0  0  0  0  0  0  0
   -1.4771   14.1512   -2.2377 C   0  0  0  0  0  0  0  0  0  0  0  0
    0.3641   12.6381   -4.2633 C   0  0  0  0  0  0  0  0  0  0  0  0
    2.0580   13.5342   -2.6347 C   0  0  0  0  0  0  0  0  0  0  0  0
    0.5963   13.1815   -2.8626 C   0  0  0  0  0  0  0  0  0  0  0  0
   -6.5449   14.5529   -0.8414 C   0  0  0  0  0  0  0  0  0  0  0  0
   -3.9457   14.9526    1.8410 N   0  0  0  0  0  0  0  0  0  0  0  0
   -1.6533   14.8251   -1.0441 N   0  0  0  0  0  0  0  0  0  0  0  0
   -1.6497   15.0798    1.7368 O   0  0  0  0  0  0  0  0  0  0  0  0
   -2.3210   13.4689   -2.8104 O   0  0  0  0  0  0  0  0  0  0  0  0
   -0.2067   14.3567   -2.6980 O   0  0  0  0  0  0  0  0  0  0  0  0
   -6.3422   14.4436   -2.1713 F   0  0  0  0  0  0  0  0  0  0  0  0
   -7.2159   13.4546   -0.4356 F   0  0  0  0  0  0  0  0  0  0  0  0
   -7.3413   15.6224   -0.6323 F   0  0  0  0  0  0  0  0  0  0  0  0
   -4.1235   14.5945   -1.9672 H   0  0  0  0  0  0  0  0  0  0  0  0
   -6.0243   14.8319    1.8748 H   0  0  0  0  0  0  0  0  0  0  0  0
    0.6810   13.3552   -5.0267 H   0  0  0  0  0  0  0  0  0  0  0  0
   -0.6935   12.4007   -4.4227 H   0  0  0  0  0  0  0  0  0  0  0  0
    0.9206   11.7053   -4.4079 H   0  0  0  0  0  0  0  0  0  0  0  0
    2.3928   14.2742   -3.3697 H   0  0  0  0  0  0  0  0  0  0  0  0
    2.6988   12.6546   -2.7614 H   0  0  0  0  0  0  0  0  0  0  0  0
    2.2167   13.9441   -1.6327 H   0  0  0  0  0  0  0  0  0  0  0  0
    0.2694   12.4414   -2.1241 H   0  0  0  0  0  0  0  0  0  0  0  0
   -3.9433   15.0452    2.8526 H   0  0  0  0  0  0  0  0  0  0  0  0
   -0.8680   15.3571   -0.6771 H   0  0  0  0  0  0  0  0  0  0  0  0
  1  3  1  0  0  0  0
  1  4  2  0  0  0  0
  2  3  2  0  0  0  0
  2 11  1  0  0  0  0
  3 10  1  0  0  0  0
  4  5  1  0  0  0  0
  4 12  1  0  0  0  0
  5 11  1  0  0  0  0
  5 13  2  0  0  0  0
  6 12  1  0  0  0  0
  6 14  2  0  0  0  0
  6 15  1  0  0  0  0
  7  9  1  0  0  0  0
  8  9  1  0  0  0  0
  9 15  1  0  0  0  0
 10 16  1  0  0  0  0
 10 17  1  0  0  0  0
 10 18  1  0  0  0  0
  1 19  1  0  0  0  0
  2 20  1  0  0  0  0
  7 21  1  0  0  0  0
  7 22  1  0  0  0  0
  7 23  1  0  0  0  0
  8 24  1  0  0  0  0
  8 25  1  0  0  0  0
  8 26  1  0  0  0  0
  9 27  1  0  0  0  0
 11 28  1  0  0  0  0
 12 29  1  0  0  0  0
M  END
> <HYBRID receptor title>
5S18(A) > WOY(A-201)

> <HYBRID receptor filename>
experiments/data/docking/5s18.oedu

> <HYBRID Chemgauss4 score>
-8.266784

> <HYBRID receptor title>
5S18(A) > WOY(A-201)

> <HYBRID receptor filename>
experiments/data/docking/5s18.oedu

> <Dock Type>
Hybrid

$$$$
MOL0400
  -OEChem-07032415493D

 29 30  0     0  0  0  0  0  0999 V2000
   -4.0604   14.4764   -1.2415 C   0  0  0  0  0  0  0  0  0  0  0  0
   -5.2436   14.9361    0.7945 C   0  0  0  0  0  0  0  0  0  0  0  0
   -5.3006   14.6715   -0.5179 C   0  0  0  0  0  0  0  0  0  0  0  0
   -2.8574   14.5504   -0.6463 C   0  0  0  0  0  0  0  0  0  0  0  0
   -2.8142   14.8488    0.8290 C   0  0  0  0  0  0  0  0  0  0  0  0
   -0.3630   14.3821   -0.9943 C   0  0  0  0  0  0  0  0  0  0  0  0
   -1.5419   14.0775   -2.7178 C   0  0  0  0  0  0  0  0  0  0  0  0
   -0.0004   14.0667   -2.4740 C   0  0  0  0  0  0  0  0  0  0  0  0
    0.6637   12.7082   -2.6701 C   0  0  0  0  0  0  0  0  0  0  0  0
    0.7605   15.1869   -3.1744 C   0  0  0  0  0  0  0  0  0  0  0  0
   -6.5814   14.5656   -1.2827 C   0  0  0  0  0  0  0  0  0  0  0  0
   -4.0418   15.0221    1.4472 N   0  0  0  0  0  0  0  0  0  0  0  0
   -1.7009   14.3724   -1.2991 N   0  0  0  0  0  0  0  0  0  0  0  0
   -1.7420   14.9285    1.4256 O   0  0  0  0  0  0  0  0  0  0  0  0
    0.2403   14.5681    0.0377 O   0  0  0  0  0  0  0  0  0  0  0  0
   -6.3483   14.2921   -2.5837 F   0  0  0  0  0  0  0  0  0  0  0  0
   -7.3658   13.5842   -0.7899 F   0  0  0  0  0  0  0  0  0  0  0  0
   -7.2793   15.7194   -1.2227 F   0  0  0  0  0  0  0  0  0  0  0  0
   -4.1327   14.2631   -2.3048 H   0  0  0  0  0  0  0  0  0  0  0  0
   -6.1225   15.0947    1.4072 H   0  0  0  0  0  0  0  0  0  0  0  0
   -1.9164   14.8745   -3.3683 H   0  0  0  0  0  0  0  0  0  0  0  0
   -1.9866   13.1210   -3.0106 H   0  0  0  0  0  0  0  0  0  0  0  0
    0.8892   12.5535   -3.7246 H   0  0  0  0  0  0  0  0  0  0  0  0
   -0.0027   11.9163   -2.3299 H   0  0  0  0  0  0  0  0  0  0  0  0
    1.5908   12.6612   -2.0984 H   0  0  0  0  0  0  0  0  0  0  0  0
    0.9811   14.9005   -4.2022 H   0  0  0  0  0  0  0  0  0  0  0  0
    1.6963   15.3837   -2.6524 H   0  0  0  0  0  0  0  0  0  0  0  0
    0.1603   16.0971   -3.1810 H   0  0  0  0  0  0  0  0  0  0  0  0
   -4.0625   15.2253    2.4423 H   0  0  0  0  0  0  0  0  0  0  0  0
  1  3  1  0  0  0  0
  1  4  2  0  0  0  0
  2  3  2  0  0  0  0
  2 12  1  0  0  0  0
  3 11  1  0  0  0  0
  4  5  1  0  0  0  0
  4 13  1  0  0  0  0
  5 12  1  0  0  0  0
  5 14  2  0  0  0  0
  6  8  1  0  0  0  0
  6 13  1  0  0  0  0
  6 15  2  0  0  0  0
  7  8  1  0  0  0  0
  7 13  1  0  0  0  0
  8  9  1  0  0  0  0
  8 10  1  0  0  0  0
 11 16  1  0  0  0  0
 11 17  1  0  0  0  0
 11 18  1  0  0  0  0
  1 19  1  0  0  0  0
  2 20  1  0  0  0  0
  7 21  1  0  0  0  0
  7 22  1  0  0  0  0
  9 23  1  0  0  0  0
  9 24  1  0  0  0  0
  9 25  1  0  0  0  0
 10 26  1  0  0  0  0
 10 27  1  0  0  0  0
 10 28  1  0  0  0  0
 12 29  1  0  0  0  0
M  END
> <HYBRID receptor title>
5S18(A) > WOY(A-201)

> <HYBRID receptor filename>
experiments/data/docking/5s18.oedu

> <HYBRID Chemgauss4 score>
-8.258821

> <HYBRID receptor title>
5S18(A) > WOY(A-201)

> <HYBRID receptor filename>
experiments/data/docking/5s18.oedu

> <Dock Type>
Hybrid

$$$$
MOL0130
  -OEChem-07032415493D

 27 28  0     1  0  0  0  0  0999 V2000
   -3.5597   14.5481   -1.3157 C   0  0  0  0  0  0  0  0  0  0  0  0
   -4.7664   14.5310    0.7580 C   0  0  0  0  0  0  0  0  0  0  0  0
   -4.8052   14.4645   -0.5798 C   0  0  0  0  0  0  0  0  0  0  0  0
   -2.3693   14.6892   -0.7075 C   0  0  0  0  0  0  0  0  0  0  0  0
   -2.3466   14.7621    0.7964 C   0  0  0  0  0  0  0  0  0  0  0  0
    0.0365   14.3416   -0.9087 C   0  0  0  0  0  0  0  0  0  0  0  0
   -1.0844   15.2421   -2.7278 C   0  0  0  0  0  0  0  0  0  0  0  0
    0.4135   15.3876   -2.9085 C   0  0  2  0  0  0  0  0  0  0  0  0
    0.9073   14.9012   -4.2565 C   0  0  0  0  0  0  0  0  0  0  0  0
   -6.0708   14.3078   -1.3612 C   0  0  0  0  0  0  0  0  0  0  0  0
   -3.5780   14.6749    1.4249 N   0  0  0  0  0  0  0  0  0  0  0  0
   -1.1897   14.7690   -1.3819 N   0  0  0  0  0  0  0  0  0  0  0  0
   -1.2865   14.8913    1.4059 O   0  0  0  0  0  0  0  0  0  0  0  0
    0.2870   13.8164    0.1680 O   0  0  0  0  0  0  0  0  0  0  0  0
    0.9935   14.5829   -1.8640 O   0  0  0  0  0  0  0  0  0  0  0  0
   -5.8206   14.2693   -2.6869 F   0  0  0  0  0  0  0  0  0  0  0  0
   -6.7121   13.1675   -1.0300 F   0  0  0  0  0  0  0  0  0  0  0  0
   -6.9140   15.3361   -1.1305 F   0  0  0  0  0  0  0  0  0  0  0  0
   -3.6172   14.4919   -2.3996 H   0  0  0  0  0  0  0  0  0  0  0  0
   -5.6505   14.4764    1.3813 H   0  0  0  0  0  0  0  0  0  0  0  0
   -1.6100   16.1930   -2.8620 H   0  0  0  0  0  0  0  0  0  0  0  0
   -1.5189   14.4895   -3.3953 H   0  0  0  0  0  0  0  0  0  0  0  0
    0.7325   16.4231   -2.7411 H   0  0  0  0  0  0  0  0  0  0  0  0
    0.5913   13.8698   -4.4266 H   0  0  0  0  0  0  0  0  0  0  0  0
    1.9978   14.9432   -4.2987 H   0  0  0  0  0  0  0  0  0  0  0  0
    0.5034   15.5260   -5.0570 H   0  0  0  0  0  0  0  0  0  0  0  0
   -3.6123   14.7194    2.4392 H   0  0  0  0  0  0  0  0  0  0  0  0
  1  3  1  0  0  0  0
  1  4  2  0  0  0  0
  2  3  2  0  0  0  0
  2 11  1  0  0  0  0
  3 10  1  0  0  0  0
  4  5  1  0  0  0  0
  4 12  1  0  0  0  0
  5 11  1  0  0  0  0
  5 13  2  0  0  0  0
  6 12  1  0  0  0  0
  6 14  2  0  0  0  0
  6 15  1  0  0  0  0
  7  8  1  0  0  0  0
  7 12  1  0  0  0  0
  8  9  1  0  0  0  0
  8 15  1  0  0  0  0
 10 16  1  0  0  0  0
 10 17  1  0  0  0  0
 10 18  1  0  0  0  0
  1 19  1  0  0  0  0
  2 20  1  0  0  0  0
  7 21  1  0  0  0  0
  7 22  1  0  0  0  0
  8 23  1  0  0  0  0
  9 24  1  0  0  0  0
  9 25  1  0  0  0  0
  9 26  1  0  0  0  0
 11 27  1  0  0  0  0
M  END
> <HYBRID receptor title>
5S18(A) > WOY(A-201)

> <HYBRID receptor filename>
experiments/data/docking/5s18.oedu

> <HYBRID Chemgauss4 score>
-8.230320

> <HYBRID receptor title>
5S18(A) > WOY(A-201)

> <HYBRID receptor filename>
experiments/data/docking/5s18.oedu

> <Dock Type>
Hybrid

$$$$
MOL0221
  -OEChem-07032415493D

 25 26  0     0  0  0  0  0  0999 V2000
   -3.2683   14.2654   -0.6077 C   0  0  0  0  0  0  0  0  0  0  0  0
   -2.3392   14.9466    1.3272 C   0  0  0  0  0  0  0  0  0  0  0  0
   -2.0506   14.6314    0.0175 C   0  0  0  0  0  0  0  0  0  0  0  0
   -4.2637   14.3677    0.3389 C   0  0  0  0  0  0  0  0  0  0  0  0
   -0.6000   14.9687   -1.9808 C   0  0  0  0  0  0  0  0  0  0  0  0
    0.3536   14.4538    0.1580 C   0  0  0  0  0  0  0  0  0  0  0  0
   -0.7568   14.6758   -0.5649 C   0  0  0  0  0  0  0  0  0  0  0  0
    0.5988   15.0229   -2.5871 C   0  0  0  0  0  0  0  0  0  0  0  0
    1.8249   14.7686   -1.7537 C   0  0  0  0  0  0  0  0  0  0  0  0
   -5.7130   14.1120    0.2449 C   0  0  0  0  0  0  0  0  0  0  0  0
   -3.6875   14.7825    1.5109 N   0  0  0  0  0  0  0  0  0  0  0  0
    1.5978   14.4976   -0.4156 N   0  0  0  0  0  0  0  0  0  0  0  0
    0.8037   15.2920   -3.9078 N   0  0  0  0  0  0  0  0  0  0  0  0
    2.9493   14.8042   -2.2504 O   0  0  0  0  0  0  0  0  0  0  0  0
   -6.1370   13.7041   -0.9952 F   0  0  0  0  0  0  0  0  0  0  0  0
   -6.4771   15.2142    0.5316 F   0  0  0  0  0  0  0  0  0  0  0  0
   -6.1672   13.1378    1.0987 F   0  0  0  0  0  0  0  0  0  0  0  0
   -3.4095   13.9600   -1.6361 H   0  0  0  0  0  0  0  0  0  0  0  0
   -1.7122   15.2719    2.1465 H   0  0  0  0  0  0  0  0  0  0  0  0
   -1.5049   15.1481   -2.5565 H   0  0  0  0  0  0  0  0  0  0  0  0
    0.3395   14.2289    1.2184 H   0  0  0  0  0  0  0  0  0  0  0  0
   -4.1788   14.9432    2.3796 H   0  0  0  0  0  0  0  0  0  0  0  0
    2.3963   14.3204    0.1870 H   0  0  0  0  0  0  0  0  0  0  0  0
    0.0122   15.4660   -4.4890 H   0  0  0  0  0  0  0  0  0  0  0  0
    1.7385   15.3072   -4.2535 H   0  0  0  0  0  0  0  0  0  0  0  0
  1  3  1  0  0  0  0
  1  4  2  0  0  0  0
  2  3  2  0  0  0  0
  2 11  1  0  0  0  0
  3  7  1  0  0  0  0
  4 10  1  0  0  0  0
  4 11  1  0  0  0  0
  5  7  1  0  0  0  0
  5  8  2  0  0  0  0
  6  7  2  0  0  0  0
  6 12  1  0  0  0  0
  8  9  1  0  0  0  0
  8 13  1  0  0  0  0
  9 12  1  0  0  0  0
  9 14  2  0  0  0  0
 10 15  1  0  0  0  0
 10 16  1  0  0  0  0
 10 17  1  0  0  0  0
  1 18  1  0  0  0  0
  2 19  1  0  0  0  0
  5 20  1  0  0  0  0
  6 21  1  0  0  0  0
 11 22  1  0  0  0  0
 12 23  1  0  0  0  0
 13 24  1  0  0  0  0
 13 25  1  0  0  0  0
M  END
> <HYBRID receptor title>
5S18(A) > WOY(A-201)

> <HYBRID receptor filename>
experiments/data/docking/5s18.oedu

> <HYBRID Chemgauss4 score>
-8.215218

> <HYBRID receptor title>
5S18(A) > WOY(A-201)

> <HYBRID receptor filename>
experiments/data/docking/5s18.oedu

> <Dock Type>
Hybrid

$$$$
MOL0202
  -OEChem-07032415493D

 32 33  0     0  0  0  0  0  0999 V2000
   -4.1280   14.6840   -1.1367 C   0  0  0  0  0  0  0  0  0  0  0  0
   -5.1261   14.7487    1.0442 C   0  0  0  0  0  0  0  0  0  0  0  0
   -5.2988   14.6796   -0.2829 C   0  0  0  0  0  0  0  0  0  0  0  0
   -2.8777   14.7544   -0.6480 C   0  0  0  0  0  0  0  0  0  0  0  0
   -2.7045   14.8316    0.8458 C   0  0  0  0  0  0  0  0  0  0  0  0
   -1.7127   15.2754   -2.7317 C   0  0  0  0  0  0  0  0  0  0  0  0
   -0.2849   15.1382   -3.2096 C   0  0  0  0  0  0  0  0  0  0  0  0
   -0.4847   14.2719   -0.9783 C   0  0  0  0  0  0  0  0  0  0  0  0
    0.3233   14.0839   -2.2671 C   0  0  0  0  0  0  0  0  0  0  0  0
    1.8151   14.3298   -2.0368 C   0  0  0  0  0  0  0  0  0  0  0  0
    0.1176   12.6699   -2.8360 C   0  0  0  0  0  0  0  0  0  0  0  0
   -6.6416   14.5975   -0.9364 C   0  0  0  0  0  0  0  0  0  0  0  0
   -3.8720   14.8223    1.5914 N   0  0  0  0  0  0  0  0  0  0  0  0
   -1.7651   14.7592   -1.4354 N   0  0  0  0  0  0  0  0  0  0  0  0
   -1.5843   14.8980    1.3485 O   0  0  0  0  0  0  0  0  0  0  0  0
   -2.6112   15.7895   -3.3826 O   0  0  0  0  0  0  0  0  0  0  0  0
   -6.5243   14.5387   -2.2797 F   0  0  0  0  0  0  0  0  0  0  0  0
   -7.3155   13.4999   -0.5335 F   0  0  0  0  0  0  0  0  0  0  0  0
   -7.3946   15.6764   -0.6352 F   0  0  0  0  0  0  0  0  0  0  0  0
   -4.2940   14.6271   -2.2093 H   0  0  0  0  0  0  0  0  0  0  0  0
   -5.9470   14.7508    1.7507 H   0  0  0  0  0  0  0  0  0  0  0  0
   -0.3111   14.7965   -4.2503 H   0  0  0  0  0  0  0  0  0  0  0  0
    0.2301   16.1017   -3.1553 H   0  0  0  0  0  0  0  0  0  0  0  0
   -0.6574   13.3228   -0.4571 H   0  0  0  0  0  0  0  0  0  0  0  0
   -0.0224   14.9842   -0.2861 H   0  0  0  0  0  0  0  0  0  0  0  0
    2.2050   13.5683   -1.3696 H   0  0  0  0  0  0  0  0  0  0  0  0
    1.9523   15.3100   -1.5921 H   0  0  0  0  0  0  0  0  0  0  0  0
    2.3373   14.2842   -2.9876 H   0  0  0  0  0  0  0  0  0  0  0  0
    0.5517   11.9358   -2.1606 H   0  0  0  0  0  0  0  0  0  0  0  0
    0.5995   12.5916   -3.8082 H   0  0  0  0  0  0  0  0  0  0  0  0
   -0.9468   12.4695   -2.9467 H   0  0  0  0  0  0  0  0  0  0  0  0
   -3.8047   14.8727    2.6038 H   0  0  0  0  0  0  0  0  0  0  0  0
  1  3  1  0  0  0  0
  1  4  2  0  0  0  0
  2  3  2  0  0  0  0
  2 13  1  0  0  0  0
  3 12  1  0  0  0  0
  4  5  1  0  0  0  0
  4 14  1  0  0  0  0
  5 13  1  0  0  0  0
  5 15  2  0  0  0  0
  6  7  1  0  0  0  0
  6 14  1  0  0  0  0
  6 16  2  0  0  0  0
  7  9  1  0  0  0  0
  8  9  1  0  0  0  0
  8 14  1  0  0  0  0
  9 10  1  0  0  0  0
  9 11  1  0  0  0  0
 12 17  1  0  0  0  0
 12 18  1  0  0  0  0
 12 19  1  0  0  0  0
  1 20  1  0  0  0  0
  2 21  1  0  0  0  0
  7 22  1  0  0  0  0
  7 23  1  0  0  0  0
  8 24  1  0  0  0  0
  8 25  1  0  0  0  0
 10 26  1  0  0  0  0
 10 27  1  0  0  0  0
 10 28  1  0  0  0  0
 11 29  1  0  0  0  0
 11 30  1  0  0  0  0
 11 31  1  0  0  0  0
 13 32  1  0  0  0  0
M  END
> <HYBRID receptor title>
5S18(A) > WOY(A-201)

> <HYBRID receptor filename>
experiments/data/docking/5s18.oedu

> <HYBRID Chemgauss4 score>
-8.210600

> <HYBRID receptor title>
5S18(A) > WOY(A-201)

> <HYBRID receptor filename>
experiments/data/docking/5s18.oedu

> <Dock Type>
Hybrid

$$$$
MOL0083
  -OEChem-07032415493D

 31 31  0     0  0  0  0  0  0999 V2000
   -3.8770   14.6883   -1.0737 C   0  0  0  0  0  0  0  0  0  0  0  0
   -5.0339   14.9838    1.0074 C   0  0  0  0  0  0  0  0  0  0  0  0
   -5.1066   14.7450   -0.3092 C   0  0  0  0  0  0  0  0  0  0  0  0
   -2.6685   14.8655   -0.5123 C   0  0  0  0  0  0  0  0  0  0  0  0
   -2.6076   15.1328    0.9683 C   0  0  0  0  0  0  0  0  0  0  0  0
   -1.3207   14.0348   -2.3527 C   0  0  0  0  0  0  0  0  0  0  0  0
    0.1945   13.2555   -4.2156 C   0  0  0  0  0  0  0  0  0  0  0  0
    0.3468   15.6074   -3.3901 C   0  0  0  0  0  0  0  0  0  0  0  0
    1.1524   13.7427   -1.9375 C   0  0  0  0  0  0  0  0  0  0  0  0
   -6.3949   14.5325   -1.0386 C   0  0  0  0  0  0  0  0  0  0  0  0
    0.0901   14.1484   -2.9701 C   0  0  0  0  0  0  0  0  0  0  0  0
   -3.8260   15.1715    1.6265 N   0  0  0  0  0  0  0  0  0  0  0  0
   -1.5052   14.8153   -1.2130 N   0  0  0  0  0  0  0  0  0  0  0  0
   -1.5298   15.3028    1.5350 O   0  0  0  0  0  0  0  0  0  0  0  0
   -2.1925   13.3134   -2.8381 O   0  0  0  0  0  0  0  0  0  0  0  0
   -6.1778   14.3129   -2.3525 F   0  0  0  0  0  0  0  0  0  0  0  0
   -7.0647   13.4683   -0.5486 F   0  0  0  0  0  0  0  0  0  0  0  0
   -7.1988   15.6111   -0.9283 F   0  0  0  0  0  0  0  0  0  0  0  0
   -3.9621   14.4934   -2.1396 H   0  0  0  0  0  0  0  0  0  0  0  0
   -5.9042   15.0419    1.6495 H   0  0  0  0  0  0  0  0  0  0  0  0
    1.1915   13.3251   -4.6662 H   0  0  0  0  0  0  0  0  0  0  0  0
    0.0101   12.2046   -3.9657 H   0  0  0  0  0  0  0  0  0  0  0  0
   -0.5303   13.5388   -4.9861 H   0  0  0  0  0  0  0  0  0  0  0  0
    1.3427   15.7238   -3.8337 H   0  0  0  0  0  0  0  0  0  0  0  0
    0.2825   16.2854   -2.5323 H   0  0  0  0  0  0  0  0  0  0  0  0
   -0.3849   15.9408   -4.1353 H   0  0  0  0  0  0  0  0  0  0  0  0
    2.1670   13.8119   -2.3433 H   0  0  0  0  0  0  0  0  0  0  0  0
    1.0042   12.7077   -1.6075 H   0  0  0  0  0  0  0  0  0  0  0  0
    1.1106   14.3876   -1.0531 H   0  0  0  0  0  0  0  0  0  0  0  0
   -3.8347   15.3488    2.6268 H   0  0  0  0  0  0  0  0  0  0  0  0
   -0.7260   15.3786   -0.8876 H   0  0  0  0  0  0  0  0  0  0  0  0
  1  3  1  0  0  0  0
  1  4  2  0  0  0  0
  2  3  2  0  0  0  0
  2 12  1  0  0  0  0
  3 10  1  0  0  0  0
  4  5  1  0  0  0  0
  4 13  1  0  0  0  0
  5 12  1  0  0  0  0
  5 14  2  0  0  0  0
  6 11  1  0  0  0  0
  6 13  1  0  0  0  0
  6 15  2  0  0  0  0
  7 11  1  0  0  0  0
  8 11  1  0  0  0  0
  9 11  1  0  0  0  0
 10 16  1  0  0  0  0
 10 17  1  0  0  0  0
 10 18  1  0  0  0  0
  1 19  1  0  0  0  0
  2 20  1  0  0  0  0
  7 21  1  0  0  0  0
  7 22  1  0  0  0  0
  7 23  1  0  0  0  0
  8 24  1  0  0  0  0
  8 25  1  0  0  0  0
  8 26  1  0  0  0  0
  9 27  1  0  0  0  0
  9 28  1  0  0  0  0
  9 29  1  0  0  0  0
 12 30  1  0  0  0  0
 13 31  1  0  0  0  0
M  END
> <HYBRID receptor title>
5S18(A) > WOY(A-201)

> <HYBRID receptor filename>
experiments/data/docking/5s18.oedu

> <HYBRID Chemgauss4 score>
-8.174545

> <HYBRID receptor title>
5S18(A) > WOY(A-201)

> <HYBRID receptor filename>
experiments/data/docking/5s18.oedu

> <Dock Type>
Hybrid

$$$$
MOL0367
  -OEChem-07032415493D

 28 28  0     0  0  0  0  0  0999 V2000
   -2.9897   14.7750   -1.1605 C   0  0  0  0  0  0  0  0  0  0  0  0
   -4.5553   15.0361    0.6447 C   0  0  0  0  0  0  0  0  0  0  0  0
   -1.9443   14.7584   -0.3182 C   0  0  0  0  0  0  0  0  0  0  0  0
   -4.3494   14.9181   -0.6751 C   0  0  0  0  0  0  0  0  0  0  0  0
   -2.1810   14.8906    1.1535 C   0  0  0  0  0  0  0  0  0  0  0  0
   -0.6065   14.6086   -0.8972 C   0  0  0  0  0  0  0  0  0  0  0  0
    1.1874   13.6840   -3.1493 C   0  0  0  0  0  0  0  0  0  0  0  0
    0.5019   15.8213   -4.2829 C   0  0  0  0  0  0  0  0  0  0  0  0
    0.7117   15.1170   -2.9484 C   0  0  0  0  0  0  0  0  0  0  0  0
   -5.4533   14.9250   -1.6845 C   0  0  0  0  0  0  0  0  0  0  0  0
   -3.5075   15.0230    1.5307 N   0  0  0  0  0  0  0  0  0  0  0  0
   -0.5061   15.1429   -2.1700 N   0  0  0  0  0  0  0  0  0  0  0  0
   -1.2454   14.8787    1.9497 O   0  0  0  0  0  0  0  0  0  0  0  0
    0.2961   14.0551   -0.2706 O   0  0  0  0  0  0  0  0  0  0  0  0
   -4.9666   14.7899   -2.9361 F   0  0  0  0  0  0  0  0  0  0  0  0
   -6.3200   13.9136   -1.4683 F   0  0  0  0  0  0  0  0  0  0  0  0
   -6.1486   16.0808   -1.6350 F   0  0  0  0  0  0  0  0  0  0  0  0
   -2.8524   14.6811   -2.2342 H   0  0  0  0  0  0  0  0  0  0  0  0
   -5.5390   15.1468    1.0842 H   0  0  0  0  0  0  0  0  0  0  0  0
    0.4561   13.1094   -3.7280 H   0  0  0  0  0  0  0  0  0  0  0  0
    1.3297   13.1794   -2.1875 H   0  0  0  0  0  0  0  0  0  0  0  0
    2.1364   13.6522   -3.6952 H   0  0  0  0  0  0  0  0  0  0  0  0
   -0.2454   15.3016   -4.8932 H   0  0  0  0  0  0  0  0  0  0  0  0
    1.4358   15.8684   -4.8515 H   0  0  0  0  0  0  0  0  0  0  0  0
    0.1457   16.8463   -4.1296 H   0  0  0  0  0  0  0  0  0  0  0  0
    1.4633   15.6638   -2.3677 H   0  0  0  0  0  0  0  0  0  0  0  0
   -3.7165   15.1158    2.5204 H   0  0  0  0  0  0  0  0  0  0  0  0
   -1.3222   15.5696   -2.5987 H   0  0  0  0  0  0  0  0  0  0  0  0
  1  3  2  0  0  0  0
  1  4  1  0  0  0  0
  2  4  2  0  0  0  0
  2 11  1  0  0  0  0
  3  5  1  0  0  0  0
  3  6  1  0  0  0  0
  4 10  1  0  0  0  0
  5 11  1  0  0  0  0
  5 13  2  0  0  0  0
  6 12  1  0  0  0  0
  6 14  2  0  0  0  0
  7  9  1  0  0  0  0
  8  9  1  0  0  0  0
  9 12  1  0  0  0  0
 10 15  1  0  0  0  0
 10 16  1  0  0  0  0
 10 17  1  0  0  0  0
  1 18  1  0  0  0  0
  2 19  1  0  0  0  0
  7 20  1  0  0  0  0
  7 21  1  0  0  0  0
  7 22  1  0  0  0  0
  8 23  1  0  0  0  0
  8 24  1  0  0  0  0
  8 25  1  0  0  0  0
  9 26  1  0  0  0  0
 11 27  1  0  0  0  0
 12 28  1  0  0  0  0
M  END
> <HYBRID receptor title>
5S18(A) > WOY(A-201)

> <HYBRID receptor filename>
experiments/data/docking/5s18.oedu

> <HYBRID Chemgauss4 score>
-8.157154

> <HYBRID receptor title>
5S18(A) > WOY(A-201)

> <HYBRID receptor filename>
experiments/data/docking/5s18.oedu

> <Dock Type>
Hybrid

$$$$
MOL0371
  -OEChem-07032415493D

 30 30  0     0  0  0  0  0  0999 V2000
   -2.6171   14.5763   -0.7967 C   0  0  0  0  0  0  0  0  0  0  0  0
   -4.1845   14.9333    0.9844 C   0  0  0  0  0  0  0  0  0  0  0  0
   -3.9737   14.7800   -0.3300 C   0  0  0  0  0  0  0  0  0  0  0  0
   -1.5644   14.5349    0.0383 C   0  0  0  0  0  0  0  0  0  0  0  0
   -1.8218   14.7092    1.5116 C   0  0  0  0  0  0  0  0  0  0  0  0
    0.0829   14.1704   -1.7179 C   0  0  0  0  0  0  0  0  0  0  0  0
    2.4839   15.1336   -3.7431 C   0  0  0  0  0  0  0  0  0  0  0  0
    3.3430   12.9101   -2.9426 C   0  0  0  0  0  0  0  0  0  0  0  0
    2.1156   13.7961   -3.1141 C   0  0  0  0  0  0  0  0  0  0  0  0
   -5.0679   14.8078   -1.3492 C   0  0  0  0  0  0  0  0  0  0  0  0
   -3.1447   14.8992    1.8763 N   0  0  0  0  0  0  0  0  0  0  0  0
   -0.2833   14.3439   -0.3818 N   0  0  0  0  0  0  0  0  0  0  0  0
    1.4602   13.9971   -1.8428 N   0  0  0  0  0  0  0  0  0  0  0  0
   -0.8970   14.6806    2.3215 O   0  0  0  0  0  0  0  0  0  0  0  0
   -0.7028   14.1699   -2.6658 O   0  0  0  0  0  0  0  0  0  0  0  0
   -4.5764   14.6288   -2.5934 F   0  0  0  0  0  0  0  0  0  0  0  0
   -5.9742   13.8344   -1.1207 F   0  0  0  0  0  0  0  0  0  0  0  0
   -5.7195   15.9897   -1.3296 F   0  0  0  0  0  0  0  0  0  0  0  0
   -2.4718   14.4546   -1.8669 H   0  0  0  0  0  0  0  0  0  0  0  0
   -5.1663   15.0898    1.4143 H   0  0  0  0  0  0  0  0  0  0  0  0
    3.2082   15.6696   -3.1202 H   0  0  0  0  0  0  0  0  0  0  0  0
    1.5996   15.7700   -3.8575 H   0  0  0  0  0  0  0  0  0  0  0  0
    2.9370   14.9979   -4.7310 H   0  0  0  0  0  0  0  0  0  0  0  0
    4.0916   13.3884   -2.3009 H   0  0  0  0  0  0  0  0  0  0  0  0
    3.8081   12.6944   -3.9095 H   0  0  0  0  0  0  0  0  0  0  0  0
    3.0716   11.9562   -2.4761 H   0  0  0  0  0  0  0  0  0  0  0  0
    1.3915   13.2861   -3.7597 H   0  0  0  0  0  0  0  0  0  0  0  0
   -3.3669   15.0215    2.8600 H   0  0  0  0  0  0  0  0  0  0  0  0
    0.4436   14.3285    0.3290 H   0  0  0  0  0  0  0  0  0  0  0  0
    2.0370   14.0562   -1.0092 H   0  0  0  0  0  0  0  0  0  0  0  0
  1  3  1  0  0  0  0
  1  4  2  0  0  0  0
  2  3  2  0  0  0  0
  2 11  1  0  0  0  0
  3 10  1  0  0  0  0
  4  5  1  0  0  0  0
  4 12  1  0  0  0  0
  5 11  1  0  0  0  0
  5 14  2  0  0  0  0
  6 12  1  0  0  0  0
  6 13  1  0  0  0  0
  6 15  2  0  0  0  0
  7  9  1  0  0  0  0
  8  9  1  0  0  0  0
  9 13  1  0  0  0  0
 10 16  1  0  0  0  0
 10 17  1  0  0  0  0
 10 18  1  0  0  0  0
  1 19  1  0  0  0  0
  2 20  1  0  0  0  0
  7 21  1  0  0  0  0
  7 22  1  0  0  0  0
  7 23  1  0  0  0  0
  8 24  1  0  0  0  0
  8 25  1  0  0  0  0
  8 26  1  0  0  0  0
  9 27  1  0  0  0  0
 11 28  1  0  0  0  0
 12 29  1  0  0  0  0
 13 30  1  0  0  0  0
M  END
> <HYBRID receptor title>
5S18(A) > WOY(A-201)

> <HYBRID receptor filename>
experiments/data/docking/5s18.oedu

> <HYBRID Chemgauss4 score>
-8.140850

> <HYBRID receptor title>
5S18(A) > WOY(A-201)

> <HYBRID receptor filename>
experiments/data/docking/5s18.oedu

> <Dock Type>
Hybrid

$$$$
MOL0074
  -OEChem-07032415493D

 32 32  0     0  0  0  0  0  0999 V2000
   -3.0372   14.5124   -1.1904 C   0  0  0  0  0  0  0  0  0  0  0  0
   -4.5000   14.8018    0.6893 C   0  0  0  0  0  0  0  0  0  0  0  0
   -4.3697   14.6293   -0.6332 C   0  0  0  0  0  0  0  0  0  0  0  0
   -1.9292   14.5700   -0.4315 C   0  0  0  0  0  0  0  0  0  0  0  0
   -2.0964   14.7644    1.0523 C   0  0  0  0  0  0  0  0  0  0  0  0
    1.5883   12.9719   -2.2601 C   0  0  0  0  0  0  0  0  0  0  0  0
   -0.7365   12.3238   -2.9182 C   0  0  0  0  0  0  0  0  0  0  0  0
    0.6295   13.7565   -4.4441 C   0  0  0  0  0  0  0  0  0  0  0  0
   -0.2770   14.6928   -2.2619 C   0  0  0  0  0  0  0  0  0  0  0  0
   -5.5306   14.5504   -1.5728 C   0  0  0  0  0  0  0  0  0  0  0  0
    0.3109   13.4516   -2.9704 C   0  0  0  0  0  0  0  0  0  0  0  0
   -3.4014   14.8673    1.5056 N   0  0  0  0  0  0  0  0  0  0  0  0
   -0.6543   14.4672   -0.8916 N   0  0  0  0  0  0  0  0  0  0  0  0
   -1.1206   14.8249    1.7981 O   0  0  0  0  0  0  0  0  0  0  0  0
   -5.1141   14.3745   -2.8446 F   0  0  0  0  0  0  0  0  0  0  0  0
   -6.3441   13.5201   -1.2599 F   0  0  0  0  0  0  0  0  0  0  0  0
   -6.2654   15.6819   -1.5326 F   0  0  0  0  0  0  0  0  0  0  0  0
   -2.9549   14.3734   -2.2650 H   0  0  0  0  0  0  0  0  0  0  0  0
   -5.4585   14.8980    1.1841 H   0  0  0  0  0  0  0  0  0  0  0  0
    2.3680   13.7412   -2.2697 H   0  0  0  0  0  0  0  0  0  0  0  0
    1.9995   12.0818   -2.7480 H   0  0  0  0  0  0  0  0  0  0  0  0
    1.3846   12.7146   -1.2147 H   0  0  0  0  0  0  0  0  0  0  0  0
   -1.6659   12.6247   -3.4148 H   0  0  0  0  0  0  0  0  0  0  0  0
   -0.9819   12.0577   -1.8837 H   0  0  0  0  0  0  0  0  0  0  0  0
   -0.3706   11.4188   -3.4166 H   0  0  0  0  0  0  0  0  0  0  0  0
   -0.2632   14.1014   -4.9779 H   0  0  0  0  0  0  0  0  0  0  0  0
    1.3995   14.5294   -4.5419 H   0  0  0  0  0  0  0  0  0  0  0  0
    1.0003   12.8627   -4.9592 H   0  0  0  0  0  0  0  0  0  0  0  0
    0.4427   15.5188   -2.2613 H   0  0  0  0  0  0  0  0  0  0  0  0
   -1.1778   15.0385   -2.7817 H   0  0  0  0  0  0  0  0  0  0  0  0
   -3.5528   14.9991    2.5014 H   0  0  0  0  0  0  0  0  0  0  0  0
    0.0686   14.2198   -0.2281 H   0  0  0  0  0  0  0  0  0  0  0  0
  1  3  1  0  0  0  0
  1  4  2  0  0  0  0
  2  3  2  0  0  0  0
  2 12  1  0  0  0  0
  3 10  1  0  0  0  0
  4  5  1  0  0  0  0
  4 13  1  0  0  0  0
  5 12  1  0  0  0  0
  5 14  2  0  0  0  0
  6 11  1  0  0  0  0
  7 11  1  0  0  0  0
  8 11  1  0  0  0  0
  9 11  1  0  0  0  0
  9 13  1  0  0  0  0
 10 15  1  0  0  0  0
 10 16  1  0  0  0  0
 10 17  1  0  0  0  0
  1 18  1  0  0  0  0
  2 19  1  0  0  0  0
  6 20  1  0  0  0  0
  6 21  1  0  0  0  0
  6 22  1  0  0  0  0
  7 23  1  0  0  0  0
  7 24  1  0  0  0  0
  7 25  1  0  0  0  0
  8 26  1  0  0  0  0
  8 27  1  0  0  0  0
  8 28  1  0  0  0  0
  9 29  1  0  0  0  0
  9 30  1  0  0  0  0
 12 31  1  0  0  0  0
 13 32  1  0  0  0  0
M  END
> <HYBRID receptor title>
5S18(A) > WOY(A-201)

> <HYBRID receptor filename>
experiments/data/docking/5s18.oedu

> <HYBRID Chemgauss4 score>
-8.093750

> <HYBRID receptor title>
5S18(A) > WOY(A-201)

> <HYBRID receptor filename>
experiments/data/docking/5s18.oedu

> <Dock Type>
Hybrid

$$$$
MOL0347
  -OEChem-07032415493D

 32 33  0     1  0  0  0  0  0999 V2000
   -3.5466   14.4708   -1.3733 C   0  0  0  0  0  0  0  0  0  0  0  0
   -4.8746   14.6091    0.6201 C   0  0  0  0  0  0  0  0  0  0  0  0
   -4.8315   14.4185   -0.7056 C   0  0  0  0  0  0  0  0  0  0  0  0
   -2.3985   14.7027   -0.7137 C   0  0  0  0  0  0  0  0  0  0  0  0
   -2.4677   14.9146    0.7755 C   0  0  0  0  0  0  0  0  0  0  0  0
    0.0549   14.3952   -0.5904 C   0  0  0  0  0  0  0  0  0  0  0  0
   -0.9283   15.1989   -2.6396 C   0  0  0  0  0  0  0  0  0  0  0  0
    1.1189   14.3420   -1.6924 C   0  0  2  0  0  0  0  0  0  0  0  0
    0.5846   15.3792   -2.6998 C   0  0  1  0  0  0  0  0  0  0  0  0
    1.2534   12.9267   -2.2581 C   0  0  0  0  0  0  0  0  0  0  0  0
   -6.0437   14.1530   -1.5403 C   0  0  0  0  0  0  0  0  0  0  0  0
   -3.7322   14.8492    1.3377 N   0  0  0  0  0  0  0  0  0  0  0  0
   -1.1733   14.7635   -1.2760 N   0  0  3  0  0  0  0  0  0  0  0  0
    1.1112   15.2643   -4.0282 N   0  0  0  0  0  0  0  0  0  0  0  0
   -1.4516   15.1308    1.4335 O   0  0  0  0  0  0  0  0  0  0  0  0
   -5.7136   13.9999   -2.8401 F   0  0  0  0  0  0  0  0  0  0  0  0
   -6.6761   13.0295   -1.1412 F   0  0  0  0  0  0  0  0  0  0  0  0
   -6.9240   15.1727   -1.4560 F   0  0  0  0  0  0  0  0  0  0  0  0
   -3.5350   14.3138   -2.4485 H   0  0  0  0  0  0  0  0  0  0  0  0
   -5.7928   14.5861    1.1939 H   0  0  0  0  0  0  0  0  0  0  0  0
   -0.0409   13.4434   -0.0559 H   0  0  0  0  0  0  0  0  0  0  0  0
    0.3084   15.1740    0.1388 H   0  0  0  0  0  0  0  0  0  0  0  0
   -1.4468   16.1360   -2.8730 H   0  0  0  0  0  0  0  0  0  0  0  0
   -1.2774   14.4281   -3.3374 H   0  0  0  0  0  0  0  0  0  0  0  0
    2.0965   14.6534   -1.3046 H   0  0  0  0  0  0  0  0  0  0  0  0
    0.8283   16.3725   -2.3206 H   0  0  0  0  0  0  0  0  0  0  0  0
    0.2939   12.5970   -2.6489 H   0  0  0  0  0  0  0  0  0  0  0  0
    1.5740   12.2480   -1.4715 H   0  0  0  0  0  0  0  0  0  0  0  0
    1.9893   12.9216   -3.0595 H   0  0  0  0  0  0  0  0  0  0  0  0
   -3.8174   14.9873    2.3405 H   0  0  0  0  0  0  0  0  0  0  0  0
    2.1168   15.4254   -4.0076 H   0  0  0  0  0  0  0  0  0  0  0  0
    0.7174   16.0002   -4.6126 H   0  0  0  0  0  0  0  0  0  0  0  0
  1  3  1  0  0  0  0
  1  4  2  0  0  0  0
  2  3  2  0  0  0  0
  2 12  1  0  0  0  0
  3 11  1  0  0  0  0
  4  5  1  0  0  0  0
  4 13  1  0  0  0  0
  5 12  1  0  0  0  0
  5 15  2  0  0  0  0
  6  8  1  0  0  0  0
  6 13  1  0  0  0  0
  7  9  1  0  0  0  0
  7 13  1  0  0  0  0
  8  9  1  0  0  0  0
  8 10  1  0  0  0  0
  9 14  1  0  0  0  0
 11 16  1  0  0  0  0
 11 17  1  0  0  0  0
 11 18  1  0  0  0  0
  1 19  1  0  0  0  0
  2 20  1  0  0  0  0
  6 21  1  0  0  0  0
  6 22  1  0  0  0  0
  7 23  1  0  0  0  0
  7 24  1  0  0  0  0
  8 25  1  0  0  0  0
  9 26  1  0  0  0  0
 10 27  1  0  0  0  0
 10 28  1  0  0  0  0
 10 29  1  0  0  0  0
 12 30  1  0  0  0  0
 14 31  1  0  0  0  0
 14 32  1  0  0  0  0
M  END
> <HYBRID receptor title>
5S18(A) > WOY(A-201)

> <HYBRID receptor filename>
experiments/data/docking/5s18.oedu

> <HYBRID Chemgauss4 score>
-8.062262

> <HYBRID receptor title>
5S18(A) > WOY(A-201)

> <HYBRID receptor filename>
experiments/data/docking/5s18.oedu

> <Dock Type>
Hybrid

$$$$
MOL0030
  -OEChem-07032415493D

 27 28  0     0  0  0  0  0  0999 V2000
   -2.8900   13.7979   -1.7818 C   0  0  0  0  0  0  0  0  0  0  0  0
   -2.3573   14.8847    0.3093 C   0  0  0  0  0  0  0  0  0  0  0  0
   -4.2203   13.6779   -1.3799 C   0  0  0  0  0  0  0  0  0  0  0  0
   -3.6876   14.7646    0.7113 C   0  0  0  0  0  0  0  0  0  0  0  0
   -1.9586   14.4015   -0.9371 C   0  0  0  0  0  0  0  0  0  0  0  0
   -4.6191   14.1610   -0.1334 C   0  0  0  0  0  0  0  0  0  0  0  0
   -0.1545   14.6608   -2.7424 C   0  0  0  0  0  0  0  0  0  0  0  0
    0.3838   14.5184   -0.4103 C   0  0  0  0  0  0  0  0  0  0  0  0
   -0.5709   14.5259   -1.3555 C   0  0  0  0  0  0  0  0  0  0  0  0
    1.1336   14.7747   -3.1107 C   0  0  0  0  0  0  0  0  0  0  0  0
    2.1813   14.7617   -2.0315 C   0  0  0  0  0  0  0  0  0  0  0  0
   -6.0414   14.0321    0.2960 C   0  0  0  0  0  0  0  0  0  0  0  0
    1.7104   14.6312   -0.7366 N   0  0  0  0  0  0  0  0  0  0  0  0
    1.5796   14.9045   -4.3923 N   0  0  0  0  0  0  0  0  0  0  0  0
    3.3762   14.8611   -2.3045 O   0  0  0  0  0  0  0  0  0  0  0  0
   -6.8416   13.4222   -0.6277 F   0  0  0  0  0  0  0  0  0  0  0  0
   -6.6260   15.2400    0.5454 F   0  0  0  0  0  0  0  0  0  0  0  0
   -6.2003   13.3047    1.4413 F   0  0  0  0  0  0  0  0  0  0  0  0
   -2.5947   13.4168   -2.7566 H   0  0  0  0  0  0  0  0  0  0  0  0
   -1.6423   15.3576    0.9781 H   0  0  0  0  0  0  0  0  0  0  0  0
   -4.9391   13.2064   -2.0448 H   0  0  0  0  0  0  0  0  0  0  0  0
   -3.9894   15.1440    1.6840 H   0  0  0  0  0  0  0  0  0  0  0  0
   -0.9394   14.6676   -3.4946 H   0  0  0  0  0  0  0  0  0  0  0  0
    0.1758   14.4246    0.6496 H   0  0  0  0  0  0  0  0  0  0  0  0
    2.3815   14.6179    0.0259 H   0  0  0  0  0  0  0  0  0  0  0  0
    0.9113   14.9184   -5.1324 H   0  0  0  0  0  0  0  0  0  0  0  0
    2.5605   14.9818   -4.5521 H   0  0  0  0  0  0  0  0  0  0  0  0
  1  3  2  0  0  0  0
  1  5  1  0  0  0  0
  2  4  1  0  0  0  0
  2  5  2  0  0  0  0
  3  6  1  0  0  0  0
  4  6  2  0  0  0  0
  5  9  1  0  0  0  0
  6 12  1  0  0  0  0
  7  9  1  0  0  0  0
  7 10  2  0  0  0  0
  8  9  2  0  0  0  0
  8 13  1  0  0  0  0
 10 11  1  0  0  0  0
 10 14  1  0  0  0  0
 11 13  1  0  0  0  0
 11 15  2  0  0  0  0
 12 16  1  0  0  0  0
 12 17  1  0  0  0  0
 12 18  1  0  0  0  0
  1 19  1  0  0  0  0
  2 20  1  0  0  0  0
  3 21  1  0  0  0  0
  4 22  1  0  0  0  0
  7 23  1  0  0  0  0
  8 24  1  0  0  0  0
 13 25  1  0  0  0  0
 14 26  1  0  0  0  0
 14 27  1  0  0  0  0
M  END
> <HYBRID receptor title>
5S18(A) > WOY(A-201)

> <HYBRID receptor filename>
experiments/data/docking/5s18.oedu

> <HYBRID Chemgauss4 score>
-8.041544

> <HYBRID receptor title>
5S18(A) > WOY(A-201)

> <HYBRID receptor filename>
experiments/data/docking/5s18.oedu

> <Dock Type>
Hybrid

$$$$
MOL0095
  -OEChem-07032415493D

 27 27  0     1  0  0  0  0  0999 V2000
   -3.9003   14.7836   -1.1566 C   0  0  0  0  0  0  0  0  0  0  0  0
   -5.2469   15.1187    0.8007 C   0  0  0  0  0  0  0  0  0  0  0  0
   -5.1955   14.9438   -0.5269 C   0  0  0  0  0  0  0  0  0  0  0  0
   -2.7508   14.8035   -0.4598 C   0  0  0  0  0  0  0  0  0  0  0  0
   -2.8296   15.0012    1.0308 C   0  0  0  0  0  0  0  0  0  0  0  0
   -1.2962   13.9072   -2.1849 C   0  0  0  0  0  0  0  0  0  0  0  0
    0.6724   15.3465   -2.7743 C   0  0  0  0  0  0  0  0  0  0  0  0
    0.1729   13.9219   -2.5920 C   0  0  1  0  0  0  0  0  0  0  0  0
   -6.4085   14.9045   -1.4010 C   0  0  0  0  0  0  0  0  0  0  0  0
   -4.1035   15.1467    1.5553 N   0  0  0  0  0  0  0  0  0  0  0  0
    0.9296   13.2344   -1.5789 N   0  0  0  0  0  0  0  0  0  0  0  0
   -1.5253   14.6541   -1.0341 N   0  0  0  0  0  0  0  0  0  0  0  0
   -1.8106   15.0282    1.7185 O   0  0  0  0  0  0  0  0  0  0  0  0
   -2.1626   13.3288   -2.8380 O   0  0  0  0  0  0  0  0  0  0  0  0
   -6.0688   14.7167   -2.6937 F   0  0  0  0  0  0  0  0  0  0  0  0
   -7.2370   13.9013   -1.0430 F   0  0  0  0  0  0  0  0  0  0  0  0
   -7.1021   16.0596   -1.3207 F   0  0  0  0  0  0  0  0  0  0  0  0
   -3.8846   14.6433   -2.2343 H   0  0  0  0  0  0  0  0  0  0  0  0
   -6.1731   15.2458    1.3476 H   0  0  0  0  0  0  0  0  0  0  0  0
    0.5515   15.9239   -1.8511 H   0  0  0  0  0  0  0  0  0  0  0  0
    0.1264   15.8600   -3.5723 H   0  0  0  0  0  0  0  0  0  0  0  0
    1.7362   15.3616   -3.0384 H   0  0  0  0  0  0  0  0  0  0  0  0
    0.2982   13.3534   -3.5202 H   0  0  0  0  0  0  0  0  0  0  0  0
   -4.2062   15.2825    2.5568 H   0  0  0  0  0  0  0  0  0  0  0  0
    1.9109   13.1646   -1.8604 H   0  0  0  0  0  0  0  0  0  0  0  0
    0.6012   12.2691   -1.4893 H   0  0  0  0  0  0  0  0  0  0  0  0
   -0.7312   15.1156   -0.5961 H   0  0  0  0  0  0  0  0  0  0  0  0
  1  3  1  0  0  0  0
  1  4  2  0  0  0  0
  2  3  2  0  0  0  0
  2 10  1  0  0  0  0
  3  9  1  0  0  0  0
  4  5  1  0  0  0  0
  4 12  1  0  0  0  0
  5 10  1  0  0  0  0
  5 13  2  0  0  0  0
  6  8  1  0  0  0  0
  6 12  1  0  0  0  0
  6 14  2  0  0  0  0
  7  8  1  0  0  0  0
  8 11  1  0  0  0  0
  9 15  1  0  0  0  0
  9 16  1  0  0  0  0
  9 17  1  0  0  0  0
  1 18  1  0  0  0  0
  2 19  1  0  0  0  0
  7 20  1  0  0  0  0
  7 21  1  0  0  0  0
  7 22  1  0  0  0  0
  8 23  1  0  0  0  0
 10 24  1  0  0  0  0
 11 25  1  0  0  0  0
 11 26  1  0  0  0  0
 12 27  1  0  0  0  0
M  END
> <HYBRID receptor title>
5S18(A) > WOY(A-201)

> <HYBRID receptor filename>
experiments/data/docking/5s18.oedu

> <HYBRID Chemgauss4 score>
-8.011023

> <HYBRID receptor title>
5S18(A) > WOY(A-201)

> <HYBRID receptor filename>
experiments/data/docking/5s18.oedu

> <Dock Type>
Hybrid

$$$$
MOL0075
  -OEChem-07032415493D

 29 29  0     0  0  0  0  0  0999 V2000
   -3.3427   14.6839   -1.0725 C   0  0  0  0  0  0  0  0  0  0  0  0
   -4.6688   14.9131    0.9139 C   0  0  0  0  0  0  0  0  0  0  0  0
   -4.6281   14.8478   -0.4240 C   0  0  0  0  0  0  0  0  0  0  0  0
   -2.1920   14.5946   -0.3834 C   0  0  0  0  0  0  0  0  0  0  0  0
   -2.2585   14.6702    1.1190 C   0  0  0  0  0  0  0  0  0  0  0  0
    2.8324   13.7873   -2.9837 C   0  0  0  0  0  0  0  0  0  0  0  0
    1.6848   13.6164   -2.0003 C   0  0  0  0  0  0  0  0  0  0  0  0
    1.4418   14.8949   -1.1970 C   0  0  0  0  0  0  0  0  0  0  0  0
    0.2671   14.7576   -0.2370 C   0  0  0  0  0  0  0  0  0  0  0  0
   -5.8434   14.9354   -1.2912 C   0  0  0  0  0  0  0  0  0  0  0  0
   -3.5236   14.8273    1.6614 N   0  0  0  0  0  0  0  0  0  0  0  0
   -0.9538   14.4400   -0.9321 N   0  0  0  0  0  0  0  0  0  0  0  0
   -1.2400   14.5947    1.8038 O   0  0  0  0  0  0  0  0  0  0  0  0
   -5.5152   14.8416   -2.5970 F   0  0  0  0  0  0  0  0  0  0  0  0
   -6.7151   13.9433   -1.0136 F   0  0  0  0  0  0  0  0  0  0  0  0
   -6.4849   16.1092   -1.1107 F   0  0  0  0  0  0  0  0  0  0  0  0
   -3.3330   14.6337   -2.1580 H   0  0  0  0  0  0  0  0  0  0  0  0
   -5.5872   15.0347    1.4749 H   0  0  0  0  0  0  0  0  0  0  0  0
    3.7491   14.0583   -2.4530 H   0  0  0  0  0  0  0  0  0  0  0  0
    2.6134   14.5783   -3.7084 H   0  0  0  0  0  0  0  0  0  0  0  0
    3.0199   12.8597   -3.5341 H   0  0  0  0  0  0  0  0  0  0  0  0
    0.7769   13.3454   -2.5516 H   0  0  0  0  0  0  0  0  0  0  0  0
    1.9153   12.7842   -1.3253 H   0  0  0  0  0  0  0  0  0  0  0  0
    2.3468   15.1509   -0.6332 H   0  0  0  0  0  0  0  0  0  0  0  0
    1.2408   15.7244   -1.8852 H   0  0  0  0  0  0  0  0  0  0  0  0
    0.1085   15.6817    0.3288 H   0  0  0  0  0  0  0  0  0  0  0  0
    0.4605   13.9519    0.4776 H   0  0  0  0  0  0  0  0  0  0  0  0
   -3.6071   14.8822    2.6723 H   0  0  0  0  0  0  0  0  0  0  0  0
   -0.8961   14.0827   -1.8713 H   0  0  0  0  0  0  0  0  0  0  0  0
  1  3  1  0  0  0  0
  1  4  2  0  0  0  0
  2  3  2  0  0  0  0
  2 11  1  0  0  0  0
  3 10  1  0  0  0  0
  4  5  1  0  0  0  0
  4 12  1  0  0  0  0
  5 11  1  0  0  0  0
  5 13  2  0  0  0  0
  6  7  1  0  0  0  0
  7  8  1  0  0  0  0
  8  9  1  0  0  0  0
  9 12  1  0  0  0  0
 10 14  1  0  0  0  0
 10 15  1  0  0  0  0
 10 16  1  0  0  0  0
  1 17  1  0  0  0  0
  2 18  1  0  0  0  0
  6 19  1  0  0  0  0
  6 20  1  0  0  0  0
  6 21  1  0  0  0  0
  7 22  1  0  0  0  0
  7 23  1  0  0  0  0
  8 24  1  0  0  0  0
  8 25  1  0  0  0  0
  9 26  1  0  0  0  0
  9 27  1  0  0  0  0
 11 28  1  0  0  0  0
 12 29  1  0  0  0  0
M  END
> <HYBRID receptor title>
5S18(A) > WOY(A-201)

> <HYBRID receptor filename>
experiments/data/docking/5s18.oedu

> <HYBRID Chemgauss4 score>
-8.009888

> <HYBRID receptor title>
5S18(A) > WOY(A-201)

> <HYBRID receptor filename>
experiments/data/docking/5s18.oedu

> <Dock Type>
Hybrid

$$$$
MOL0101
  -OEChem-07032415493D

 32 32  0     0  0  0  0  0  0999 V2000
   -1.0562   14.6835   -1.7283 C   0  0  0  0  0  0  0  0  0  0  0  0
    1.3113   14.4748   -1.3995 C   0  0  0  0  0  0  0  0  0  0  0  0
    0.2820   14.5118   -2.2568 C   0  0  0  0  0  0  0  0  0  0  0  0
   -1.3030   14.8072   -0.4127 C   0  0  0  0  0  0  0  0  0  0  0  0
   -0.1334   14.7629    0.5345 C   0  0  0  0  0  0  0  0  0  0  0  0
   -3.7047   15.0262   -0.6602 C   0  0  0  0  0  0  0  0  0  0  0  0
   -5.0918   12.8444   -0.2502 C   0  0  0  0  0  0  0  0  0  0  0  0
   -6.7828   14.5493   -0.9873 C   0  0  0  0  0  0  0  0  0  0  0  0
   -6.4700   14.0755    1.4596 C   0  0  0  0  0  0  0  0  0  0  0  0
    0.4385   14.3849   -3.7388 C   0  0  0  0  0  0  0  0  0  0  0  0
   -5.7807   14.1635    0.0984 C   0  0  0  0  0  0  0  0  0  0  0  0
    1.1118   14.5961   -0.0492 N   0  0  0  0  0  0  0  0  0  0  0  0
   -2.5532   14.9697    0.1018 N   0  0  0  0  0  0  0  0  0  0  0  0
   -0.2998   14.8707    1.7481 O   0  0  0  0  0  0  0  0  0  0  0  0
   -3.7637   14.9394   -1.8829 O   0  0  0  0  0  0  0  0  0  0  0  0
   -4.7879   15.1950    0.1560 O   0  0  0  0  0  0  0  0  0  0  0  0
   -0.7573   14.4560   -4.3606 F   0  0  0  0  0  0  0  0  0  0  0  0
    1.2192   15.3678   -4.2343 F   0  0  0  0  0  0  0  0  0  0  0  0
    1.0045   13.2045   -4.0677 F   0  0  0  0  0  0  0  0  0  0  0  0
   -1.8742   14.7103   -2.4435 H   0  0  0  0  0  0  0  0  0  0  0  0
    2.3407   14.3497   -1.7123 H   0  0  0  0  0  0  0  0  0  0  0  0
   -4.3718   12.5630    0.5256 H   0  0  0  0  0  0  0  0  0  0  0  0
   -5.8147   12.0304   -0.3634 H   0  0  0  0  0  0  0  0  0  0  0  0
   -4.5231   12.9370   -1.1816 H   0  0  0  0  0  0  0  0  0  0  0  0
   -7.2795   15.4950   -0.7414 H   0  0  0  0  0  0  0  0  0  0  0  0
   -6.3007   14.6546   -1.9640 H   0  0  0  0  0  0  0  0  0  0  0  0
   -7.5753   13.7970   -1.0714 H   0  0  0  0  0  0  0  0  0  0  0  0
   -6.9677   15.0149    1.7212 H   0  0  0  0  0  0  0  0  0  0  0  0
   -7.2175   13.2739    1.4684 H   0  0  0  0  0  0  0  0  0  0  0  0
   -5.7474   13.8335    2.2467 H   0  0  0  0  0  0  0  0  0  0  0  0
    1.9310   14.5604    0.5505 H   0  0  0  0  0  0  0  0  0  0  0  0
   -2.6454   15.0550    1.1111 H   0  0  0  0  0  0  0  0  0  0  0  0
  1  3  1  0  0  0  0
  1  4  2  0  0  0  0
  2  3  2  0  0  0  0
  2 12  1  0  0  0  0
  3 10  1  0  0  0  0
  4  5  1  0  0  0  0
  4 13  1  0  0  0  0
  5 12  1  0  0  0  0
  5 14  2  0  0  0  0
  6 13  1  0  0  0  0
  6 15  2  0  0  0  0
  6 16  1  0  0  0  0
  7 11  1  0  0  0  0
  8 11  1  0  0  0  0
  9 11  1  0  0  0  0
 10 17  1  0  0  0  0
 10 18  1  0  0  0  0
 10 19  1  0  0  0  0
 11 16  1  0  0  0  0
  1 20  1  0  0  0  0
  2 21  1  0  0  0  0
  7 22  1  0  0  0  0
  7 23  1  0  0  0  0
  7 24  1  0  0  0  0
  8 25  1  0  0  0  0
  8 26  1  0  0  0  0
  8 27  1  0  0  0  0
  9 28  1  0  0  0  0
  9 29  1  0  0  0  0
  9 30  1  0  0  0  0
 12 31  1  0  0  0  0
 13 32  1  0  0  0  0
M  END
> <HYBRID receptor title>
5S18(A) > WOY(A-201)

> <HYBRID receptor filename>
experiments/data/docking/5s18.oedu

> <HYBRID Chemgauss4 score>
-7.924769

> <HYBRID receptor title>
5S18(A) > WOY(A-201)

> <HYBRID receptor filename>
experiments/data/docking/5s18.oedu

> <Dock Type>
Hybrid

$$$$
MOL0398
  -OEChem-07032415493D

 27 27  0     0  0  0  0  0  0999 V2000
   -4.1028   14.6063   -1.2496 C   0  0  0  0  0  0  0  0  0  0  0  0
   -5.0883   14.5667    0.9376 C   0  0  0  0  0  0  0  0  0  0  0  0
   -5.2617   14.4831   -0.3886 C   0  0  0  0  0  0  0  0  0  0  0  0
   -2.8627   14.8005   -0.7686 C   0  0  0  0  0  0  0  0  0  0  0  0
   -2.6885   14.8919    0.7243 C   0  0  0  0  0  0  0  0  0  0  0  0
   -0.6184   14.1378   -1.5966 C   0  0  0  0  0  0  0  0  0  0  0  0
    1.5451   15.6457   -4.3034 C   0  0  0  0  0  0  0  0  0  0  0  0
    0.2914   15.5985   -3.4469 C   0  0  0  0  0  0  0  0  0  0  0  0
   -6.5937   14.2683   -1.0340 C   0  0  0  0  0  0  0  0  0  0  0  0
   -3.8444   14.7644    1.4772 N   0  0  0  0  0  0  0  0  0  0  0  0
   -1.7624   14.9180   -1.5620 N   0  0  0  0  0  0  0  0  0  0  0  0
    0.3562   14.4868   -2.5138 N   0  0  0  0  0  0  0  0  0  0  0  0
   -1.5773   15.0691    1.2202 O   0  0  0  0  0  0  0  0  0  0  0  0
   -6.4798   14.2240   -2.3781 F   0  0  0  0  0  0  0  0  0  0  0  0
   -7.1518   13.1080   -0.6296 F   0  0  0  0  0  0  0  0  0  0  0  0
   -7.4490   15.2659   -0.7254 F   0  0  0  0  0  0  0  0  0  0  0  0
   -0.5119   12.8397   -0.5265 S   0  0  0  0  0  0  0  0  0  0  0  0
   -4.2691   14.5351   -2.3214 H   0  0  0  0  0  0  0  0  0  0  0  0
   -5.9008   14.4852    1.6492 H   0  0  0  0  0  0  0  0  0  0  0  0
    1.6527   14.7125   -4.8652 H   0  0  0  0  0  0  0  0  0  0  0  0
    2.4421   15.7740   -3.6883 H   0  0  0  0  0  0  0  0  0  0  0  0
    1.5021   16.4702   -5.0232 H   0  0  0  0  0  0  0  0  0  0  0  0
    0.1906   16.5348   -2.8883 H   0  0  0  0  0  0  0  0  0  0  0  0
   -0.5916   15.4923   -4.0856 H   0  0  0  0  0  0  0  0  0  0  0  0
   -3.7760   14.8194    2.4892 H   0  0  0  0  0  0  0  0  0  0  0  0
   -1.7863   15.6919   -2.2241 H   0  0  0  0  0  0  0  0  0  0  0  0
    1.2040   13.9357   -2.5622 H   0  0  0  0  0  0  0  0  0  0  0  0
  1  3  1  0  0  0  0
  1  4  2  0  0  0  0
  2  3  2  0  0  0  0
  2 10  1  0  0  0  0
  3  9  1  0  0  0  0
  4  5  1  0  0  0  0
  4 11  1  0  0  0  0
  5 10  1  0  0  0  0
  5 13  2  0  0  0  0
  6 11  1  0  0  0  0
  6 12  1  0  0  0  0
  6 17  2  0  0  0  0
  7  8  1  0  0  0  0
  8 12  1  0  0  0  0
  9 14  1  0  0  0  0
  9 15  1  0  0  0  0
  9 16  1  0  0  0  0
  1 18  1  0  0  0  0
  2 19  1  0  0  0  0
  7 20  1  0  0  0  0
  7 21  1  0  0  0  0
  7 22  1  0  0  0  0
  8 23  1  0  0  0  0
  8 24  1  0  0  0  0
 10 25  1  0  0  0  0
 11 26  1  0  0  0  0
 12 27  1  0  0  0  0
M  END
> <HYBRID receptor title>
5S18(A) > WOY(A-201)

> <HYBRID receptor filename>
experiments/data/docking/5s18.oedu

> <HYBRID Chemgauss4 score>
-7.896405

> <HYBRID receptor title>
5S18(A) > WOY(A-201)

> <HYBRID receptor filename>
experiments/data/docking/5s18.oedu

> <Dock Type>
Hybrid

$$$$
MOL0311
  -OEChem-07032415493D

 33 34  0     0  0  0  0  0  0999 V2000
   -0.7881   14.8543   -1.8058 C   0  0  0  0  0  0  0  0  0  0  0  0
    1.5256   14.3822   -1.3811 C   0  0  0  0  0  0  0  0  0  0  0  0
    0.5572   14.6013   -2.2810 C   0  0  0  0  0  0  0  0  0  0  0  0
   -1.1001   14.8779   -0.4985 C   0  0  0  0  0  0  0  0  0  0  0  0
    0.0019   14.6293    0.4971 C   0  0  0  0  0  0  0  0  0  0  0  0
   -4.7640   15.8443    0.0159 C   0  0  0  0  0  0  0  0  0  0  0  0
   -4.3267   14.1071   -1.1898 C   0  0  0  0  0  0  0  0  0  0  0  0
   -3.5388   15.3713   -0.7912 C   0  0  0  0  0  0  0  0  0  0  0  0
   -5.3536   14.4086   -0.0632 C   0  0  0  0  0  0  0  0  0  0  0  0
   -5.1517   13.5794    1.2049 C   0  0  0  0  0  0  0  0  0  0  0  0
   -6.8067   14.3661   -0.5292 C   0  0  0  0  0  0  0  0  0  0  0  0
    0.7887   14.5990   -3.7585 C   0  0  0  0  0  0  0  0  0  0  0  0
    1.2585   14.3954   -0.0372 N   0  0  0  0  0  0  0  0  0  0  0  0
   -2.3490   15.1109    0.0146 N   0  0  0  0  0  0  0  0  0  0  0  0
   -0.2217   14.6381    1.7063 O   0  0  0  0  0  0  0  0  0  0  0  0
   -0.3562   14.8463   -4.4292 F   0  0  0  0  0  0  0  0  0  0  0  0
    1.6861   15.5420   -4.1146 F   0  0  0  0  0  0  0  0  0  0  0  0
    1.2601   13.4045   -4.1742 F   0  0  0  0  0  0  0  0  0  0  0  0
   -1.5577   15.0290   -2.5529 H   0  0  0  0  0  0  0  0  0  0  0  0
    2.5554   14.1856   -1.6527 H   0  0  0  0  0  0  0  0  0  0  0  0
   -4.5345   16.1833    1.0398 H   0  0  0  0  0  0  0  0  0  0  0  0
   -5.3601   16.6344   -0.4639 H   0  0  0  0  0  0  0  0  0  0  0  0
   -4.7244   14.1112   -2.2150 H   0  0  0  0  0  0  0  0  0  0  0  0
   -3.7742   13.1626   -1.0559 H   0  0  0  0  0  0  0  0  0  0  0  0
   -3.2810   16.0308   -1.6492 H   0  0  0  0  0  0  0  0  0  0  0  0
   -5.5890   12.5901    1.0753 H   0  0  0  0  0  0  0  0  0  0  0  0
   -5.6308   14.0713    2.0506 H   0  0  0  0  0  0  0  0  0  0  0  0
   -4.0870   13.4722    1.4135 H   0  0  0  0  0  0  0  0  0  0  0  0
   -7.1524   13.3349   -0.5609 H   0  0  0  0  0  0  0  0  0  0  0  0
   -6.8867   14.8013   -1.5232 H   0  0  0  0  0  0  0  0  0  0  0  0
   -7.4309   14.9319    0.1605 H   0  0  0  0  0  0  0  0  0  0  0  0
    2.0267   14.2237    0.6049 H   0  0  0  0  0  0  0  0  0  0  0  0
   -2.4281   15.0937    1.0329 H   0  0  0  0  0  0  0  0  0  0  0  0
  1  3  1  0  0  0  0
  1  4  2  0  0  0  0
  2  3  2  0  0  0  0
  2 13  1  0  0  0  0
  3 12  1  0  0  0  0
  4  5  1  0  0  0  0
  4 14  1  0  0  0  0
  5 13  1  0  0  0  0
  5 15  2  0  0  0  0
  6  8  1  0  0  0  0
  6  9  1  0  0  0  0
  7  8  1  0  0  0  0
  7  9  1  0  0  0  0
  8 14  1  0  0  0  0
  9 10  1  0  0  0  0
  9 11  1  0  0  0  0
 12 16  1  0  0  0  0
 12 17  1  0  0  0  0
 12 18  1  0  0  0  0
  1 19  1  0  0  0  0
  2 20  1  0  0  0  0
  6 21  1  0  0  0  0
  6 22  1  0  0  0  0
  7 23  1  0  0  0  0
  7 24  1  0  0  0  0
  8 25  1  0  0  0  0
 10 26  1  0  0  0  0
 10 27  1  0  0  0  0
 10 28  1  0  0  0  0
 11 29  1  0  0  0  0
 11 30  1  0  0  0  0
 11 31  1  0  0  0  0
 13 32  1  0  0  0  0
 14 33  1  0  0  0  0
M  END
> <HYBRID receptor title>
5S18(A) > WOY(A-201)

> <HYBRID receptor filename>
experiments/data/docking/5s18.oedu

> <HYBRID Chemgauss4 score>
-7.886898

> <HYBRID receptor title>
5S18(A) > WOY(A-201)

> <HYBRID receptor filename>
experiments/data/docking/5s18.oedu

> <Dock Type>
Hybrid

$$$$
MOL0046
  -OEChem-07032415493D

 27 28  0     0  0  0  0  0  0999 V2000
   -4.1655   14.6152   -1.3771 C   0  0  0  0  0  0  0  0  0  0  0  0
   -5.2428   14.5788    0.7664 C   0  0  0  0  0  0  0  0  0  0  0  0
   -5.3527   14.4500   -0.5629 C   0  0  0  0  0  0  0  0  0  0  0  0
   -2.9604   14.8919   -0.8496 C   0  0  0  0  0  0  0  0  0  0  0  0
   -2.8575   15.0330    0.6461 C   0  0  0  0  0  0  0  0  0  0  0  0
   -0.6738   14.2439   -1.3682 C   0  0  0  0  0  0  0  0  0  0  0  0
   -1.7731   15.0397   -2.9673 C   0  0  0  0  0  0  0  0  0  0  0  0
   -0.2816   14.6675   -2.8024 C   0  0  0  0  0  0  0  0  0  0  0  0
    0.2544   13.5811   -3.7114 C   0  0  0  0  0  0  0  0  0  0  0  0
   -6.6408   14.1432   -1.2580 C   0  0  0  0  0  0  0  0  0  0  0  0
   -4.0367   14.8608    1.3525 N   0  0  0  0  0  0  0  0  0  0  0  0
   -1.8288   15.0557   -1.5461 N   0  0  0  0  0  0  0  0  0  0  0  0
   -1.7825   15.2856    1.1870 O   0  0  0  0  0  0  0  0  0  0  0  0
   -6.4654   14.0694   -2.5942 F   0  0  0  0  0  0  0  0  0  0  0  0
   -7.1515   12.9645   -0.8442 F   0  0  0  0  0  0  0  0  0  0  0  0
   -7.5627   15.0988   -1.0155 F   0  0  0  0  0  0  0  0  0  0  0  0
   -4.2776   14.5068   -2.4525 H   0  0  0  0  0  0  0  0  0  0  0  0
   -6.0801   14.4708    1.4448 H   0  0  0  0  0  0  0  0  0  0  0  0
   -0.9268   13.1884   -1.2234 H   0  0  0  0  0  0  0  0  0  0  0  0
   -0.0098   14.5941   -0.5740 H   0  0  0  0  0  0  0  0  0  0  0  0
   -1.9692   16.0126   -3.4249 H   0  0  0  0  0  0  0  0  0  0  0  0
   -2.4225   14.2714   -3.3996 H   0  0  0  0  0  0  0  0  0  0  0  0
    0.3739   15.5509   -2.8133 H   0  0  0  0  0  0  0  0  0  0  0  0
   -0.4038   12.7086   -3.6932 H   0  0  0  0  0  0  0  0  0  0  0  0
    1.2512   13.2700   -3.3883 H   0  0  0  0  0  0  0  0  0  0  0  0
    0.3216   13.9428   -4.7415 H   0  0  0  0  0  0  0  0  0  0  0  0
   -4.0054   14.9487    2.3640 H   0  0  0  0  0  0  0  0  0  0  0  0
  1  3  1  0  0  0  0
  1  4  2  0  0  0  0
  2  3  2  0  0  0  0
  2 11  1  0  0  0  0
  3 10  1  0  0  0  0
  4  5  1  0  0  0  0
  4 12  1  0  0  0  0
  5 11  1  0  0  0  0
  5 13  2  0  0  0  0
  6  8  1  0  0  0  0
  6 12  1  0  0  0  0
  7  8  1  0  0  0  0
  7 12  1  0  0  0  0
  8  9  1  0  0  0  0
 10 14  1  0  0  0  0
 10 15  1  0  0  0  0
 10 16  1  0  0  0  0
  1 17  1  0  0  0  0
  2 18  1  0  0  0  0
  6 19  1  0  0  0  0
  6 20  1  0  0  0  0
  7 21  1  0  0  0  0
  7 22  1  0  0  0  0
  8 23  1  0  0  0  0
  9 24  1  0  0  0  0
  9 25  1  0  0  0  0
  9 26  1  0  0  0  0
 11 27  1  0  0  0  0
M  END
> <HYBRID receptor title>
5S18(A) > WOY(A-201)

> <HYBRID receptor filename>
experiments/data/docking/5s18.oedu

> <HYBRID Chemgauss4 score>
-7.883753

> <HYBRID receptor title>
5S18(A) > WOY(A-201)

> <HYBRID receptor filename>
experiments/data/docking/5s18.oedu

> <Dock Type>
Hybrid

$$$$
MOL0206
  -OEChem-07032415493D

 26 26  0     0  0  0  0  0  0999 V2000
   -4.2912   15.0971    0.6289 C   0  0  0  0  0  0  0  0  0  0  0  0
   -4.1031   14.8439   -0.6743 C   0  0  0  0  0  0  0  0  0  0  0  0
   -2.7396   14.5992   -1.1645 C   0  0  0  0  0  0  0  0  0  0  0  0
   -1.6835   14.6283   -0.3162 C   0  0  0  0  0  0  0  0  0  0  0  0
   -1.9340   14.9170    1.1449 C   0  0  0  0  0  0  0  0  0  0  0  0
   -7.8019   14.8184   -1.7588 C   0  0  0  0  0  0  0  0  0  0  0  0
   -5.2712   14.8112   -1.6185 C   0  0  0  0  0  0  0  0  0  0  0  0
   -6.5823   14.7915   -0.8485 C   0  0  0  0  0  0  0  0  0  0  0  0
   -2.5900   14.3193   -2.6406 C   0  0  0  0  0  0  0  0  0  0  0  0
   -3.2468   15.1327    1.5075 N   0  0  0  0  0  0  0  0  0  0  0  0
   -0.3688   14.4213   -0.6270 N   0  0  0  0  0  0  0  0  0  0  0  0
   -1.0064   14.9534    1.9524 O   0  0  0  0  0  0  0  0  0  0  0  0
   -3.7886   14.3494   -3.2493 F   0  0  0  0  0  0  0  0  0  0  0  0
   -1.7976   15.2378   -3.2203 F   0  0  0  0  0  0  0  0  0  0  0  0
   -2.0452   13.1057   -2.8372 F   0  0  0  0  0  0  0  0  0  0  0  0
   -5.2664   15.2865    1.0614 H   0  0  0  0  0  0  0  0  0  0  0  0
   -7.7799   15.6920   -2.4177 H   0  0  0  0  0  0  0  0  0  0  0  0
   -7.8558   13.9193   -2.3806 H   0  0  0  0  0  0  0  0  0  0  0  0
   -8.7178   14.8682   -1.1615 H   0  0  0  0  0  0  0  0  0  0  0  0
   -5.1689   13.9366   -2.2629 H   0  0  0  0  0  0  0  0  0  0  0  0
   -5.2112   15.7133   -2.2317 H   0  0  0  0  0  0  0  0  0  0  0  0
   -6.6349   13.9068   -0.2035 H   0  0  0  0  0  0  0  0  0  0  0  0
   -6.6155   15.6712   -0.1950 H   0  0  0  0  0  0  0  0  0  0  0  0
   -3.4581   15.3301    2.4813 H   0  0  0  0  0  0  0  0  0  0  0  0
   -0.1296   14.2254   -1.5734 H   0  0  0  0  0  0  0  0  0  0  0  0
    0.3057   14.4734    0.1029 H   0  0  0  0  0  0  0  0  0  0  0  0
  1  2  2  0  0  0  0
  1 10  1  0  0  0  0
  2  3  1  0  0  0  0
  2  7  1  0  0  0  0
  3  4  2  0  0  0  0
  3  9  1  0  0  0  0
  4  5  1  0  0  0  0
  4 11  1  0  0  0  0
  5 10  1  0  0  0  0
  5 12  2  0  0  0  0
  6  8  1  0  0  0  0
  7  8  1  0  0  0  0
  9 13  1  0  0  0  0
  9 14  1  0  0  0  0
  9 15  1  0  0  0  0
  1 16  1  0  0  0  0
  6 17  1  0  0  0  0
  6 18  1  0  0  0  0
  6 19  1  0  0  0  0
  7 20  1  0  0  0  0
  7 21  1  0  0  0  0
  8 22  1  0  0  0  0
  8 23  1  0  0  0  0
 10 24  1  0  0  0  0
 11 25  1  0  0  0  0
 11 26  1  0  0  0  0
M  END
> <HYBRID receptor title>
5S18(A) > WOY(A-201)

> <HYBRID receptor filename>
experiments/data/docking/5s18.oedu

> <HYBRID Chemgauss4 score>
-7.835527

> <HYBRID receptor title>
5S18(A) > WOY(A-201)

> <HYBRID receptor filename>
experiments/data/docking/5s18.oedu

> <Dock Type>
Hybrid

$$$$
MOL0389
  -OEChem-07032415493D

 29 30  0     0  0  0  0  0  0999 V2000
   -4.4929   14.8601    0.8571 C   0  0  0  0  0  0  0  0  0  0  0  0
   -2.8899   14.6368   -0.9393 C   0  0  0  0  0  0  0  0  0  0  0  0
   -4.2837   14.7319   -0.4632 C   0  0  0  0  0  0  0  0  0  0  0  0
   -1.8488   14.6778   -0.0726 C   0  0  0  0  0  0  0  0  0  0  0  0
   -2.1367   14.8240    1.4009 C   0  0  0  0  0  0  0  0  0  0  0  0
   -6.2503   15.7404   -1.4813 C   0  0  0  0  0  0  0  0  0  0  0  0
   -6.2621   13.6416   -1.3673 C   0  0  0  0  0  0  0  0  0  0  0  0
   -7.2218   14.6642   -2.0159 C   0  0  0  0  0  0  0  0  0  0  0  0
   -7.3639   14.5827   -3.5275 C   0  0  0  0  0  0  0  0  0  0  0  0
   -2.6918   14.4926   -2.4309 C   0  0  0  0  0  0  0  0  0  0  0  0
   -3.4657   14.9047    1.7544 N   0  0  0  0  0  0  0  0  0  0  0  0
   -5.3044   14.6908   -1.3270 N   0  0  0  0  0  0  0  0  0  0  0  0
   -0.5179   14.6011   -0.3751 N   0  0  0  0  0  0  0  0  0  0  0  0
   -1.2247   14.8666    2.2255 O   0  0  0  0  0  0  0  0  0  0  0  0
   -3.8781   14.4785   -3.0624 F   0  0  0  0  0  0  0  0  0  0  0  0
   -1.9661   15.5158   -2.9130 F   0  0  0  0  0  0  0  0  0  0  0  0
   -2.0477   13.3464   -2.7102 F   0  0  0  0  0  0  0  0  0  0  0  0
   -5.4847   14.9361    1.2886 H   0  0  0  0  0  0  0  0  0  0  0  0
   -5.9154   16.4981   -2.2003 H   0  0  0  0  0  0  0  0  0  0  0  0
   -6.5393   16.2126   -0.5367 H   0  0  0  0  0  0  0  0  0  0  0  0
   -6.5557   13.2776   -0.3774 H   0  0  0  0  0  0  0  0  0  0  0  0
   -5.9361   12.8067   -1.9998 H   0  0  0  0  0  0  0  0  0  0  0  0
   -8.2007   14.6961   -1.5291 H   0  0  0  0  0  0  0  0  0  0  0  0
   -6.3800   14.5514   -4.0026 H   0  0  0  0  0  0  0  0  0  0  0  0
   -7.9048   15.4530   -3.9079 H   0  0  0  0  0  0  0  0  0  0  0  0
   -7.9146   13.6814   -3.8119 H   0  0  0  0  0  0  0  0  0  0  0  0
   -3.7040   15.0038    2.7370 H   0  0  0  0  0  0  0  0  0  0  0  0
   -0.2528   14.5040   -1.3297 H   0  0  0  0  0  0  0  0  0  0  0  0
    0.1413   14.6450    0.3690 H   0  0  0  0  0  0  0  0  0  0  0  0
  1  3  2  0  0  0  0
  1 11  1  0  0  0  0
  2  3  1  0  0  0  0
  2  4  2  0  0  0  0
  2 10  1  0  0  0  0
  3 12  1  0  0  0  0
  4  5  1  0  0  0  0
  4 13  1  0  0  0  0
  5 11  1  0  0  0  0
  5 14  2  0  0  0  0
  6  8  1  0  0  0  0
  6 12  1  0  0  0  0
  7  8  1  0  0  0  0
  7 12  1  0  0  0  0
  8  9  1  0  0  0  0
 10 15  1  0  0  0  0
 10 16  1  0  0  0  0
 10 17  1  0  0  0  0
  1 18  1  0  0  0  0
  6 19  1  0  0  0  0
  6 20  1  0  0  0  0
  7 21  1  0  0  0  0
  7 22  1  0  0  0  0
  8 23  1  0  0  0  0
  9 24  1  0  0  0  0
  9 25  1  0  0  0  0
  9 26  1  0  0  0  0
 11 27  1  0  0  0  0
 13 28  1  0  0  0  0
 13 29  1  0  0  0  0
M  END
> <HYBRID receptor title>
5S18(A) > WOY(A-201)

> <HYBRID receptor filename>
experiments/data/docking/5s18.oedu

> <HYBRID Chemgauss4 score>
-7.778699

> <HYBRID receptor title>
5S18(A) > WOY(A-201)

> <HYBRID receptor filename>
experiments/data/docking/5s18.oedu

> <Dock Type>
Hybrid

$$$$
MOL0003
  -OEChem-07032415493D

 23 23  0     0  0  0  0  0  0999 V2000
   -3.7260   14.8335   -1.0004 C   0  0  0  0  0  0  0  0  0  0  0  0
   -5.0551   14.7219    0.9940 C   0  0  0  0  0  0  0  0  0  0  0  0
   -5.0144   14.7304   -0.3454 C   0  0  0  0  0  0  0  0  0  0  0  0
   -2.5724   14.9202   -0.3158 C   0  0  0  0  0  0  0  0  0  0  0  0
   -2.6389   14.9090    1.1884 C   0  0  0  0  0  0  0  0  0  0  0  0
    1.0166   14.4504   -1.1425 C   0  0  0  0  0  0  0  0  0  0  0  0
   -0.1183   14.6977   -0.1636 C   0  0  0  0  0  0  0  0  0  0  0  0
   -6.2327   14.6391   -1.2079 C   0  0  0  0  0  0  0  0  0  0  0  0
   -3.9070   14.8082    1.7371 N   0  0  0  0  0  0  0  0  0  0  0  0
   -1.3313   15.0189   -0.8708 N   0  0  0  0  0  0  0  0  0  0  0  0
   -1.6178   14.9855    1.8692 O   0  0  0  0  0  0  0  0  0  0  0  0
   -5.9039   14.6701   -2.5166 F   0  0  0  0  0  0  0  0  0  0  0  0
   -6.9086   13.4934   -0.9804 F   0  0  0  0  0  0  0  0  0  0  0  0
   -7.0741   15.6674   -0.9699 F   0  0  0  0  0  0  0  0  0  0  0  0
   -3.7165   14.8390   -2.0870 H   0  0  0  0  0  0  0  0  0  0  0  0
   -5.9756   14.6480    1.5598 H   0  0  0  0  0  0  0  0  0  0  0  0
    1.1852   15.3407   -1.7565 H   0  0  0  0  0  0  0  0  0  0  0  0
    0.7875   13.6164   -1.8143 H   0  0  0  0  0  0  0  0  0  0  0  0
    1.9499   14.2209   -0.6170 H   0  0  0  0  0  0  0  0  0  0  0  0
   -0.2808   13.8033    0.4466 H   0  0  0  0  0  0  0  0  0  0  0  0
    0.1441   15.5201    0.5100 H   0  0  0  0  0  0  0  0  0  0  0  0
   -3.9906   14.7976    2.7494 H   0  0  0  0  0  0  0  0  0  0  0  0
   -1.2657   15.3308   -1.8255 H   0  0  0  0  0  0  0  0  0  0  0  0
  1  3  1  0  0  0  0
  1  4  2  0  0  0  0
  2  3  2  0  0  0  0
  2  9  1  0  0  0  0
  3  8  1  0  0  0  0
  4  5  1  0  0  0  0
  4 10  1  0  0  0  0
  5  9  1  0  0  0  0
  5 11  2  0  0  0  0
  6  7  1  0  0  0  0
  7 10  1  0  0  0  0
  8 12  1  0  0  0  0
  8 13  1  0  0  0  0
  8 14  1  0  0  0  0
  1 15  1  0  0  0  0
  2 16  1  0  0  0  0
  6 17  1  0  0  0  0
  6 18  1  0  0  0  0
  6 19  1  0  0  0  0
  7 20  1  0  0  0  0
  7 21  1  0  0  0  0
  9 22  1  0  0  0  0
 10 23  1  0  0  0  0
M  END
> <HYBRID receptor title>
5S18(A) > WOY(A-201)

> <HYBRID receptor filename>
experiments/data/docking/5s18.oedu

> <HYBRID Chemgauss4 score>
-7.754296

> <HYBRID receptor title>
5S18(A) > WOY(A-201)

> <HYBRID receptor filename>
experiments/data/docking/5s18.oedu

> <Dock Type>
Hybrid

$$$$
MOL0060
  -OEChem-07032415493D

 30 31  0     0  0  0  0  0  0999 V2000
    0.5997   11.3069   -2.7357 C   0  0  0  0  0  0  0  0  0  0  0  0
    1.4285   12.3781   -2.4021 C   0  0  0  0  0  0  0  0  0  0  0  0
   -0.7768   11.5005   -2.8512 C   0  0  0  0  0  0  0  0  0  0  0  0
    0.8812   13.6426   -2.1844 C   0  0  0  0  0  0  0  0  0  0  0  0
   -1.3241   12.7650   -2.6335 C   0  0  0  0  0  0  0  0  0  0  0  0
   -0.4953   13.8362   -2.2999 C   0  0  0  0  0  0  0  0  0  0  0  0
   -3.7801   14.8512   -0.8838 C   0  0  0  0  0  0  0  0  0  0  0  0
   -5.0876   14.3410    1.0623 C   0  0  0  0  0  0  0  0  0  0  0  0
   -5.0401   14.4843   -0.2692 C   0  0  0  0  0  0  0  0  0  0  0  0
   -2.6594   15.0523   -0.1693 C   0  0  0  0  0  0  0  0  0  0  0  0
   -2.7331   14.8866    1.3255 C   0  0  0  0  0  0  0  0  0  0  0  0
   -1.0850   15.1973   -2.0656 C   0  0  0  0  0  0  0  0  0  0  0  0
   -6.2229   14.2856   -1.1627 C   0  0  0  0  0  0  0  0  0  0  0  0
   -3.9726   14.5353    1.8348 N   0  0  0  0  0  0  0  0  0  0  0  0
   -1.4461   15.3979   -0.6857 N   0  0  0  0  0  0  0  0  0  0  0  0
   -1.7414   15.0571    2.0323 O   0  0  0  0  0  0  0  0  0  0  0  0
   -5.8947   14.4934   -2.4553 F   0  0  0  0  0  0  0  0  0  0  0  0
   -6.7098   13.0313   -1.0581 F   0  0  0  0  0  0  0  0  0  0  0  0
   -7.2183   15.1411   -0.8476 F   0  0  0  0  0  0  0  0  0  0  0  0
    1.0257   10.3224   -2.9052 H   0  0  0  0  0  0  0  0  0  0  0  0
    2.5004   12.2276   -2.3125 H   0  0  0  0  0  0  0  0  0  0  0  0
   -1.4223   10.6665   -3.1107 H   0  0  0  0  0  0  0  0  0  0  0  0
    1.5349   14.4711   -1.9248 H   0  0  0  0  0  0  0  0  0  0  0  0
   -2.3976   12.9062   -2.7269 H   0  0  0  0  0  0  0  0  0  0  0  0
   -3.7646   14.9624   -1.9646 H   0  0  0  0  0  0  0  0  0  0  0  0
   -5.9883   14.0693    1.5986 H   0  0  0  0  0  0  0  0  0  0  0  0
   -0.3721   15.9801   -2.3452 H   0  0  0  0  0  0  0  0  0  0  0  0
   -1.9848   15.3452   -2.6718 H   0  0  0  0  0  0  0  0  0  0  0  0
   -4.0600   14.4146    2.8396 H   0  0  0  0  0  0  0  0  0  0  0  0
   -0.7726   15.8169   -0.0661 H   0  0  0  0  0  0  0  0  0  0  0  0
  1  2  1  0  0  0  0
  1  3  2  0  0  0  0
  2  4  2  0  0  0  0
  3  5  1  0  0  0  0
  4  6  1  0  0  0  0
  5  6  2  0  0  0  0
  6 12  1  0  0  0  0
  7  9  1  0  0  0  0
  7 10  2  0  0  0  0
  8  9  2  0  0  0  0
  8 14  1  0  0  0  0
  9 13  1  0  0  0  0
 10 11  1  0  0  0  0
 10 15  1  0  0  0  0
 11 14  1  0  0  0  0
 11 16  2  0  0  0  0
 12 15  1  0  0  0  0
 13 17  1  0  0  0  0
 13 18  1  0  0  0  0
 13 19  1  0  0  0  0
  1 20  1  0  0  0  0
  2 21  1  0  0  0  0
  3 22  1  0  0  0  0
  4 23  1  0  0  0  0
  5 24  1  0  0  0  0
  7 25  1  0  0  0  0
  8 26  1  0  0  0  0
 12 27  1  0  0  0  0
 12 28  1  0  0  0  0
 14 29  1  0  0  0  0
 15 30  1  0  0  0  0
M  END
> <HYBRID receptor title>
5S18(A) > WOY(A-201)

> <HYBRID receptor filename>
experiments/data/docking/5s18.oedu

> <HYBRID Chemgauss4 score>
-7.741107

> <HYBRID receptor title>
5S18(A) > WOY(A-201)

> <HYBRID receptor filename>
experiments/data/docking/5s18.oedu

> <Dock Type>
Hybrid

$$$$
MOL0420
  -OEChem-07032415493D

 27 28  0     1  0  0  0  0  0999 V2000
   -3.9453   14.5978   -0.9164 C   0  0  0  0  0  0  0  0  0  0  0  0
   -4.9923   14.9361    1.2157 C   0  0  0  0  0  0  0  0  0  0  0  0
   -5.1354   14.7429   -0.1026 C   0  0  0  0  0  0  0  0  0  0  0  0
   -2.7057   14.6494   -0.3992 C   0  0  0  0  0  0  0  0  0  0  0  0
   -2.5657   14.8674    1.0842 C   0  0  0  0  0  0  0  0  0  0  0  0
   -1.4651   13.7710   -2.3078 C   0  0  0  0  0  0  0  0  0  0  0  0
   -0.3138   15.0731   -0.7741 C   0  0  0  0  0  0  0  0  0  0  0  0
    0.5149   14.8828   -2.0281 C   0  0  1  0  0  0  0  0  0  0  0  0
    1.9331   14.4224   -1.7495 C   0  0  0  0  0  0  0  0  0  0  0  0
   -6.4639   14.6681   -0.7855 C   0  0  0  0  0  0  0  0  0  0  0  0
   -3.7501   14.9966    1.7910 N   0  0  0  0  0  0  0  0  0  0  0  0
   -1.5765   14.5147   -1.1479 N   0  0  0  0  0  0  0  0  0  0  0  0
   -1.4565   14.9234    1.6118 O   0  0  0  0  0  0  0  0  0  0  0  0
   -2.3300   13.1027   -2.8606 O   0  0  0  0  0  0  0  0  0  0  0  0
   -0.1800   13.8712   -2.7825 O   0  0  0  0  0  0  0  0  0  0  0  0
   -6.3167   14.4678   -2.1121 F   0  0  0  0  0  0  0  0  0  0  0  0
   -7.2091   13.6549   -0.2964 F   0  0  0  0  0  0  0  0  0  0  0  0
   -7.1616   15.8111   -0.6161 F   0  0  0  0  0  0  0  0  0  0  0  0
   -4.0874   14.4421   -1.9827 H   0  0  0  0  0  0  0  0  0  0  0  0
   -5.8292   15.0538    1.8931 H   0  0  0  0  0  0  0  0  0  0  0  0
    0.0765   14.5077    0.0797 H   0  0  0  0  0  0  0  0  0  0  0  0
   -0.4072   16.1284   -0.4979 H   0  0  0  0  0  0  0  0  0  0  0  0
    0.5270   15.7953   -2.6357 H   0  0  0  0  0  0  0  0  0  0  0  0
    1.9249   13.5134   -1.1443 H   0  0  0  0  0  0  0  0  0  0  0  0
    2.4839   15.1957   -1.2097 H   0  0  0  0  0  0  0  0  0  0  0  0
    2.4553   14.2126   -2.6864 H   0  0  0  0  0  0  0  0  0  0  0  0
   -3.7054   15.1451    2.7949 H   0  0  0  0  0  0  0  0  0  0  0  0
  1  3  1  0  0  0  0
  1  4  2  0  0  0  0
  2  3  2  0  0  0  0
  2 11  1  0  0  0  0
  3 10  1  0  0  0  0
  4  5  1  0  0  0  0
  4 12  1  0  0  0  0
  5 11  1  0  0  0  0
  5 13  2  0  0  0  0
  6 12  1  0  0  0  0
  6 14  2  0  0  0  0
  6 15  1  0  0  0  0
  7  8  1  0  0  0  0
  7 12  1  0  0  0  0
  8  9  1  0  0  0  0
  8 15  1  0  0  0  0
 10 16  1  0  0  0  0
 10 17  1  0  0  0  0
 10 18  1  0  0  0  0
  1 19  1  0  0  0  0
  2 20  1  0  0  0  0
  7 21  1  0  0  0  0
  7 22  1  0  0  0  0
  8 23  1  0  0  0  0
  9 24  1  0  0  0  0
  9 25  1  0  0  0  0
  9 26  1  0  0  0  0
 11 27  1  0  0  0  0
M  END
> <HYBRID receptor title>
5S18(A) > WOY(A-201)

> <HYBRID receptor filename>
experiments/data/docking/5s18.oedu

> <HYBRID Chemgauss4 score>
-7.723195

> <HYBRID receptor title>
5S18(A) > WOY(A-201)

> <HYBRID receptor filename>
experiments/data/docking/5s18.oedu

> <Dock Type>
Hybrid

$$$$
MOL0226
  -OEChem-07032415493D

 25 25  0     0  0  0  0  0  0999 V2000
   -4.5921   15.1031    0.8809 C   0  0  0  0  0  0  0  0  0  0  0  0
   -3.0778   14.8676   -0.9893 C   0  0  0  0  0  0  0  0  0  0  0  0
   -4.4425   15.0307   -0.4517 C   0  0  0  0  0  0  0  0  0  0  0  0
   -2.0041   14.7933   -0.1656 C   0  0  0  0  0  0  0  0  0  0  0  0
   -2.2251   14.8809    1.3241 C   0  0  0  0  0  0  0  0  0  0  0  0
   -6.9907   13.4376   -0.3165 C   0  0  0  0  0  0  0  0  0  0  0  0
   -6.8691   14.8476   -0.8683 C   0  0  0  0  0  0  0  0  0  0  0  0
   -2.9469   14.7890   -2.4932 C   0  0  0  0  0  0  0  0  0  0  0  0
   -3.5309   15.0317    1.7360 N   0  0  0  0  0  0  0  0  0  0  0  0
   -0.6942   14.6437   -0.5264 N   0  0  0  0  0  0  0  0  0  0  0  0
   -5.5217   15.1051   -1.2936 N   0  0  0  0  0  0  0  0  0  0  0  0
   -1.2816   14.8190    2.1112 O   0  0  0  0  0  0  0  0  0  0  0  0
   -4.1545   14.8875   -3.0748 F   0  0  0  0  0  0  0  0  0  0  0  0
   -2.1712   15.7852   -2.9534 F   0  0  0  0  0  0  0  0  0  0  0  0
   -2.3944   13.6185   -2.8556 F   0  0  0  0  0  0  0  0  0  0  0  0
   -5.5592   15.2225    1.3565 H   0  0  0  0  0  0  0  0  0  0  0  0
   -6.3153   13.3067    0.5348 H   0  0  0  0  0  0  0  0  0  0  0  0
   -6.7277   12.6906   -1.0731 H   0  0  0  0  0  0  0  0  0  0  0  0
   -8.0105   13.2333    0.0270 H   0  0  0  0  0  0  0  0  0  0  0  0
   -7.5472   14.9708   -1.7189 H   0  0  0  0  0  0  0  0  0  0  0  0
   -7.1582   15.5734   -0.1011 H   0  0  0  0  0  0  0  0  0  0  0  0
   -3.7243   15.0948    2.7313 H   0  0  0  0  0  0  0  0  0  0  0  0
   -0.4729   14.5793   -1.4948 H   0  0  0  0  0  0  0  0  0  0  0  0
   -0.0057   14.6043    0.1909 H   0  0  0  0  0  0  0  0  0  0  0  0
   -5.3476   15.3549   -2.2492 H   0  0  0  0  0  0  0  0  0  0  0  0
  1  3  2  0  0  0  0
  1  9  1  0  0  0  0
  2  3  1  0  0  0  0
  2  4  2  0  0  0  0
  2  8  1  0  0  0  0
  3 11  1  0  0  0  0
  4  5  1  0  0  0  0
  4 10  1  0  0  0  0
  5  9  1  0  0  0  0
  5 12  2  0  0  0  0
  6  7  1  0  0  0  0
  7 11  1  0  0  0  0
  8 13  1  0  0  0  0
  8 14  1  0  0  0  0
  8 15  1  0  0  0  0
  1 16  1  0  0  0  0
  6 17  1  0  0  0  0
  6 18  1  0  0  0  0
  6 19  1  0  0  0  0
  7 20  1  0  0  0  0
  7 21  1  0  0  0  0
  9 22  1  0  0  0  0
 10 23  1  0  0  0  0
 10 24  1  0  0  0  0
 11 25  1  0  0  0  0
M  END
> <HYBRID receptor title>
5S18(A) > WOY(A-201)

> <HYBRID receptor filename>
experiments/data/docking/5s18.oedu

> <HYBRID Chemgauss4 score>
-7.708849

> <HYBRID receptor title>
5S18(A) > WOY(A-201)

> <HYBRID receptor filename>
experiments/data/docking/5s18.oedu

> <Dock Type>
Hybrid

$$$$
MOL0336
  -OEChem-07032415493D

 28 28  0     0  0  0  0  0  0999 V2000
   -1.1448   14.7064   -1.7305 C   0  0  0  0  0  0  0  0  0  0  0  0
    1.2341   14.6657   -1.4212 C   0  0  0  0  0  0  0  0  0  0  0  0
    0.1988   14.6682   -2.2719 C   0  0  0  0  0  0  0  0  0  0  0  0
   -1.3907   14.7398   -0.4094 C   0  0  0  0  0  0  0  0  0  0  0  0
   -0.2141   14.7363    0.5303 C   0  0  0  0  0  0  0  0  0  0  0  0
   -3.8054   14.7830   -0.6525 C   0  0  0  0  0  0  0  0  0  0  0  0
   -7.5618   14.9123    0.2969 C   0  0  0  0  0  0  0  0  0  0  0  0
   -5.0471   14.8269    0.2210 C   0  0  0  0  0  0  0  0  0  0  0  0
   -6.3349   14.8349   -0.5967 C   0  0  0  0  0  0  0  0  0  0  0  0
    0.3536   14.6334   -3.7591 C   0  0  0  0  0  0  0  0  0  0  0  0
    1.0359   14.6986   -0.0657 N   0  0  0  0  0  0  0  0  0  0  0  0
   -2.6458   14.7765    0.1173 N   0  0  0  0  0  0  0  0  0  0  0  0
   -0.3793   14.7656    1.7484 O   0  0  0  0  0  0  0  0  0  0  0  0
   -3.8450   14.7567   -1.8795 O   0  0  0  0  0  0  0  0  0  0  0  0
   -0.8488   14.6442   -4.3722 F   0  0  0  0  0  0  0  0  0  0  0  0
    1.0518   15.6994   -4.2033 F   0  0  0  0  0  0  0  0  0  0  0  0
    1.0072   13.5201   -4.1530 F   0  0  0  0  0  0  0  0  0  0  0  0
   -1.9677   14.7075   -2.4406 H   0  0  0  0  0  0  0  0  0  0  0  0
    2.2678   14.6383   -1.7435 H   0  0  0  0  0  0  0  0  0  0  0  0
   -7.5336   15.8071    0.9264 H   0  0  0  0  0  0  0  0  0  0  0  0
   -8.4796   14.9389   -0.2985 H   0  0  0  0  0  0  0  0  0  0  0  0
   -7.6088   14.0371    0.9541 H   0  0  0  0  0  0  0  0  0  0  0  0
   -5.0304   13.9538    0.8844 H   0  0  0  0  0  0  0  0  0  0  0  0
   -4.9948   15.7267    0.8456 H   0  0  0  0  0  0  0  0  0  0  0  0
   -6.3933   13.9296   -1.2131 H   0  0  0  0  0  0  0  0  0  0  0  0
   -6.3351   15.6878   -1.2861 H   0  0  0  0  0  0  0  0  0  0  0  0
    1.8598   14.6948    0.5286 H   0  0  0  0  0  0  0  0  0  0  0  0
   -2.7279   14.7999    1.1285 H   0  0  0  0  0  0  0  0  0  0  0  0
  1  3  1  0  0  0  0
  1  4  2  0  0  0  0
  2  3  2  0  0  0  0
  2 11  1  0  0  0  0
  3 10  1  0  0  0  0
  4  5  1  0  0  0  0
  4 12  1  0  0  0  0
  5 11  1  0  0  0  0
  5 13  2  0  0  0  0
  6  8  1  0  0  0  0
  6 12  1  0  0  0  0
  6 14  2  0  0  0  0
  7  9  1  0  0  0  0
  8  9  1  0  0  0  0
 10 15  1  0  0  0  0
 10 16  1  0  0  0  0
 10 17  1  0  0  0  0
  1 18  1  0  0  0  0
  2 19  1  0  0  0  0
  7 20  1  0  0  0  0
  7 21  1  0  0  0  0
  7 22  1  0  0  0  0
  8 23  1  0  0  0  0
  8 24  1  0  0  0  0
  9 25  1  0  0  0  0
  9 26  1  0  0  0  0
 11 27  1  0  0  0  0
 12 28  1  0  0  0  0
M  END
> <HYBRID receptor title>
5S18(A) > WOY(A-201)

> <HYBRID receptor filename>
experiments/data/docking/5s18.oedu

> <HYBRID Chemgauss4 score>
-7.708425

> <HYBRID receptor title>
5S18(A) > WOY(A-201)

> <HYBRID receptor filename>
experiments/data/docking/5s18.oedu

> <Dock Type>
Hybrid

$$$$
MOL0417
  -OEChem-07032415493D

 27 27  0     0  0  0  0  0  0999 V2000
   -4.6977   14.3841   -1.0701 C   0  0  0  0  0  0  0  0  0  0  0  0
   -3.3317   14.8699    0.8495 C   0  0  0  0  0  0  0  0  0  0  0  0
   -3.4157   14.6516   -0.4668 C   0  0  0  0  0  0  0  0  0  0  0  0
   -5.8303   14.3451   -0.3459 C   0  0  0  0  0  0  0  0  0  0  0  0
   -5.7313   14.5913    1.1387 C   0  0  0  0  0  0  0  0  0  0  0  0
   -2.1967   14.6929   -1.2492 C   0  0  0  0  0  0  0  0  0  0  0  0
   -1.0205   14.5390   -0.6205 C   0  0  0  0  0  0  0  0  0  0  0  0
    0.2380   14.5788   -1.3971 C   0  0  0  0  0  0  0  0  0  0  0  0
    0.7791   16.4834   -4.4704 C   0  0  0  0  0  0  0  0  0  0  0  0
    1.1599   15.5528   -3.3387 C   0  0  0  0  0  0  0  0  0  0  0  0
   -4.4589   14.8403    1.6302 N   0  0  0  0  0  0  0  0  0  0  0  0
   -7.0759   14.0989   -0.8418 N   0  0  0  0  0  0  0  0  0  0  0  0
   -6.7325   14.5680    1.8526 O   0  0  0  0  0  0  0  0  0  0  0  0
    1.2630   13.9786   -1.1139 O   0  0  0  0  0  0  0  0  0  0  0  0
    0.0368   15.3955   -2.4667 O   0  0  0  0  0  0  0  0  0  0  0  0
   -4.7312   14.2109   -2.1423 H   0  0  0  0  0  0  0  0  0  0  0  0
   -2.4083   15.0776    1.3775 H   0  0  0  0  0  0  0  0  0  0  0  0
   -2.2751   14.8476   -2.3246 H   0  0  0  0  0  0  0  0  0  0  0  0
   -0.9620   14.3855    0.4520 H   0  0  0  0  0  0  0  0  0  0  0  0
   -0.0561   16.0757   -5.0470 H   0  0  0  0  0  0  0  0  0  0  0  0
    0.4942   17.4666   -4.0822 H   0  0  0  0  0  0  0  0  0  0  0  0
    1.6288   16.6407   -5.1424 H   0  0  0  0  0  0  0  0  0  0  0  0
    1.9954   15.9663   -2.7663 H   0  0  0  0  0  0  0  0  0  0  0  0
    1.4437   14.5701   -3.7280 H   0  0  0  0  0  0  0  0  0  0  0  0
   -4.3444   15.0118    2.6249 H   0  0  0  0  0  0  0  0  0  0  0  0
   -7.1772   13.9314   -1.8197 H   0  0  0  0  0  0  0  0  0  0  0  0
   -7.8491   14.0934   -0.2125 H   0  0  0  0  0  0  0  0  0  0  0  0
  1  3  1  0  0  0  0
  1  4  2  0  0  0  0
  2  3  2  0  0  0  0
  2 11  1  0  0  0  0
  3  6  1  0  0  0  0
  4  5  1  0  0  0  0
  4 12  1  0  0  0  0
  5 11  1  0  0  0  0
  5 13  2  0  0  0  0
  6  7  2  0  0  0  0
  7  8  1  0  0  0  0
  8 14  2  0  0  0  0
  8 15  1  0  0  0  0
  9 10  1  0  0  0  0
 10 15  1  0  0  0  0
  1 16  1  0  0  0  0
  2 17  1  0  0  0  0
  6 18  1  0  0  0  0
  7 19  1  0  0  0  0
  9 20  1  0  0  0  0
  9 21  1  0  0  0  0
  9 22  1  0  0  0  0
 10 23  1  0  0  0  0
 10 24  1  0  0  0  0
 11 25  1  0  0  0  0
 12 26  1  0  0  0  0
 12 27  1  0  0  0  0
M  END
> <HYBRID receptor title>
5S18(A) > WOY(A-201)

> <HYBRID receptor filename>
experiments/data/docking/5s18.oedu

> <HYBRID Chemgauss4 score>
-7.689430

> <HYBRID receptor title>
5S18(A) > WOY(A-201)

> <HYBRID receptor filename>
experiments/data/docking/5s18.oedu

> <Dock Type>
Hybrid

$$$$
MOL0039
  -OEChem-07032415493D

 27 27  0     1  0  0  0  0  0999 V2000
   -3.2140   14.6648   -0.9240 C   0  0  0  0  0  0  0  0  0  0  0  0
   -4.8412   14.6681    0.8392 C   0  0  0  0  0  0  0  0  0  0  0  0
   -4.5921   14.6341   -0.4770 C   0  0  0  0  0  0  0  0  0  0  0  0
   -2.1784   14.7256   -0.0691 C   0  0  0  0  0  0  0  0  0  0  0  0
   -2.4789   14.7631    1.4059 C   0  0  0  0  0  0  0  0  0  0  0  0
   -0.4144   14.1537   -1.6363 C   0  0  0  0  0  0  0  0  0  0  0  0
    1.3724   15.6249   -2.6043 C   0  0  0  0  0  0  0  0  0  0  0  0
    1.0856   14.3520   -1.8237 C   0  0  2  0  0  0  0  0  0  0  0  0
   -5.6642   14.5658   -1.5176 C   0  0  0  0  0  0  0  0  0  0  0  0
   -3.8202   14.7305    1.7510 N   0  0  0  0  0  0  0  0  0  0  0  0
    1.6123   13.1979   -2.5037 N   0  0  0  0  0  0  0  0  0  0  0  0
   -0.8776   14.7547   -0.4706 N   0  0  0  0  0  0  0  0  0  0  0  0
   -1.5713   14.8192    2.2335 O   0  0  0  0  0  0  0  0  0  0  0  0
   -1.1156   13.5629   -2.4555 O   0  0  0  0  0  0  0  0  0  0  0  0
   -5.1346   14.5433   -2.7588 F   0  0  0  0  0  0  0  0  0  0  0  0
   -6.4177   13.4558   -1.3714 F   0  0  0  0  0  0  0  0  0  0  0  0
   -6.4854   15.6340   -1.4391 F   0  0  0  0  0  0  0  0  0  0  0  0
   -3.0377   14.6363   -1.9961 H   0  0  0  0  0  0  0  0  0  0  0  0
   -5.8411   14.6488    1.2552 H   0  0  0  0  0  0  0  0  0  0  0  0
    0.8899   15.5972   -3.5876 H   0  0  0  0  0  0  0  0  0  0  0  0
    2.4478   15.7645   -2.7555 H   0  0  0  0  0  0  0  0  0  0  0  0
    0.9954   16.5072   -2.0742 H   0  0  0  0  0  0  0  0  0  0  0  0
    1.5722   14.3898   -0.8427 H   0  0  0  0  0  0  0  0  0  0  0  0
   -4.0715   14.7539    2.7350 H   0  0  0  0  0  0  0  0  0  0  0  0
    1.4363   12.3545   -1.9517 H   0  0  0  0  0  0  0  0  0  0  0  0
    2.6307   13.2684   -2.5787 H   0  0  0  0  0  0  0  0  0  0  0  0
   -0.2057   15.2444    0.1159 H   0  0  0  0  0  0  0  0  0  0  0  0
  1  3  1  0  0  0  0
  1  4  2  0  0  0  0
  2  3  2  0  0  0  0
  2 10  1  0  0  0  0
  3  9  1  0  0  0  0
  4  5  1  0  0  0  0
  4 12  1  0  0  0  0
  5 10  1  0  0  0  0
  5 13  2  0  0  0  0
  6  8  1  0  0  0  0
  6 12  1  0  0  0  0
  6 14  2  0  0  0  0
  7  8  1  0  0  0  0
  8 11  1  0  0  0  0
  9 15  1  0  0  0  0
  9 16  1  0  0  0  0
  9 17  1  0  0  0  0
  1 18  1  0  0  0  0
  2 19  1  0  0  0  0
  7 20  1  0  0  0  0
  7 21  1  0  0  0  0
  7 22  1  0  0  0  0
  8 23  1  0  0  0  0
 10 24  1  0  0  0  0
 11 25  1  0  0  0  0
 11 26  1  0  0  0  0
 12 27  1  0  0  0  0
M  END
> <HYBRID receptor title>
5S18(A) > WOY(A-201)

> <HYBRID receptor filename>
experiments/data/docking/5s18.oedu

> <HYBRID Chemgauss4 score>
-7.680999

> <HYBRID receptor title>
5S18(A) > WOY(A-201)

> <HYBRID receptor filename>
experiments/data/docking/5s18.oedu

> <Dock Type>
Hybrid

$$$$
MOL0375
  -OEChem-07032415493D

 19 19  0     0  0  0  0  0  0999 V2000
   -1.2452   14.6005   -0.7479 C   0  0  0  0  0  0  0  0  0  0  0  0
   -2.4583   14.8390   -0.1118 C   0  0  0  0  0  0  0  0  0  0  0  0
   -0.0896   14.4393    0.0082 C   0  0  0  0  0  0  0  0  0  0  0  0
   -2.4622   14.9066    1.2726 C   0  0  0  0  0  0  0  0  0  0  0  0
   -0.1991   14.5248    1.3867 C   0  0  0  0  0  0  0  0  0  0  0  0
   -3.6954   15.0118   -0.9256 C   0  0  0  0  0  0  0  0  0  0  0  0
   -1.3598   14.7551    2.0404 N   0  0  0  0  0  0  0  0  0  0  0  0
    1.1437   14.1977   -0.6224 N   0  0  0  0  0  0  0  0  0  0  0  0
   -3.6961   15.1491    1.9260 N   0  0  0  0  0  0  0  0  0  0  0  0
    0.9160   14.3713    2.1696 O   0  0  0  0  0  0  0  0  0  0  0  0
   -3.4869   14.9114   -2.2719 F   0  0  0  0  0  0  0  0  0  0  0  0
   -4.2827   16.2296   -0.7369 F   0  0  0  0  0  0  0  0  0  0  0  0
   -4.6648   14.0907   -0.6455 F   0  0  0  0  0  0  0  0  0  0  0  0
   -1.2017   14.5405   -1.8330 H   0  0  0  0  0  0  0  0  0  0  0  0
    1.1739   14.0901   -1.6180 H   0  0  0  0  0  0  0  0  0  0  0  0
    1.9579   14.0311   -0.0627 H   0  0  0  0  0  0  0  0  0  0  0  0
   -4.5081   15.3155    1.3728 H   0  0  0  0  0  0  0  0  0  0  0  0
   -3.7030   15.2526    2.9171 H   0  0  0  0  0  0  0  0  0  0  0  0
    0.6502   14.4620    3.0995 H   0  0  0  0  0  0  0  0  0  0  0  0
  1  2  2  0  0  0  0
  1  3  1  0  0  0  0
  2  4  1  0  0  0  0
  2  6  1  0  0  0  0
  3  5  2  0  0  0  0
  3  8  1  0  0  0  0
  4  7  2  0  0  0  0
  4  9  1  0  0  0  0
  5  7  1  0  0  0  0
  5 10  1  0  0  0  0
  6 11  1  0  0  0  0
  6 12  1  0  0  0  0
  6 13  1  0  0  0  0
  1 14  1  0  0  0  0
  8 15  1  0  0  0  0
  8 16  1  0  0  0  0
  9 17  1  0  0  0  0
  9 18  1  0  0  0  0
 10 19  1  0  0  0  0
M  END
> <HYBRID receptor title>
5S18(A) > WOY(A-201)

> <HYBRID receptor filename>
experiments/data/docking/5s18.oedu

> <HYBRID Chemgauss4 score>
-7.674118

> <HYBRID receptor title>
5S18(A) > WOY(A-201)

> <HYBRID receptor filename>
experiments/data/docking/5s18.oedu

> <Dock Type>
Hybrid

$$$$
MOL0383
  -OEChem-07032415493D

 29 29  0     0  0  0  0  0  0999 V2000
   -4.7075   15.1136    0.8383 C   0  0  0  0  0  0  0  0  0  0  0  0
   -4.5199   15.0906   -0.4891 C   0  0  0  0  0  0  0  0  0  0  0  0
   -3.1510   14.9988   -1.0153 C   0  0  0  0  0  0  0  0  0  0  0  0
   -2.0894   14.9384   -0.1756 C   0  0  0  0  0  0  0  0  0  0  0  0
   -2.3394   14.9669    1.3135 C   0  0  0  0  0  0  0  0  0  0  0  0
   -7.4015   13.8463   -2.6999 C   0  0  0  0  0  0  0  0  0  0  0  0
   -5.1144   12.8819   -2.3697 C   0  0  0  0  0  0  0  0  0  0  0  0
   -5.6942   15.1579   -1.4238 C   0  0  0  0  0  0  0  0  0  0  0  0
   -6.2078   13.7538   -1.7483 C   0  0  0  0  0  0  0  0  0  0  0  0
   -3.0023   14.9765   -2.5176 C   0  0  0  0  0  0  0  0  0  0  0  0
   -3.6575   15.0540    1.7090 N   0  0  0  0  0  0  0  0  0  0  0  0
   -0.7692   14.8514   -0.5185 N   0  0  0  0  0  0  0  0  0  0  0  0
   -1.4068   14.9142    2.1145 O   0  0  0  0  0  0  0  0  0  0  0  0
   -4.2069   15.0482   -3.1110 F   0  0  0  0  0  0  0  0  0  0  0  0
   -2.2612   16.0167   -2.9372 F   0  0  0  0  0  0  0  0  0  0  0  0
   -2.4012   13.8410   -2.9147 F   0  0  0  0  0  0  0  0  0  0  0  0
   -5.6864   15.1798    1.2978 H   0  0  0  0  0  0  0  0  0  0  0  0
   -7.1133   14.3275   -3.6407 H   0  0  0  0  0  0  0  0  0  0  0  0
   -7.8003   12.8531   -2.9350 H   0  0  0  0  0  0  0  0  0  0  0  0
   -8.2083   14.4394   -2.2560 H   0  0  0  0  0  0  0  0  0  0  0  0
   -4.7374   13.3200   -3.2998 H   0  0  0  0  0  0  0  0  0  0  0  0
   -5.4869   11.8765   -2.5950 H   0  0  0  0  0  0  0  0  0  0  0  0
   -4.2646   12.7804   -1.6867 H   0  0  0  0  0  0  0  0  0  0  0  0
   -6.4647   15.7436   -0.9149 H   0  0  0  0  0  0  0  0  0  0  0  0
   -5.3837   15.6928   -2.3242 H   0  0  0  0  0  0  0  0  0  0  0  0
   -6.5452   13.2665   -0.8238 H   0  0  0  0  0  0  0  0  0  0  0  0
   -3.8687   15.0757    2.7024 H   0  0  0  0  0  0  0  0  0  0  0  0
   -0.5300   14.8280   -1.4847 H   0  0  0  0  0  0  0  0  0  0  0  0
   -0.0910   14.8146    0.2088 H   0  0  0  0  0  0  0  0  0  0  0  0
  1  2  2  0  0  0  0
  1 11  1  0  0  0  0
  2  3  1  0  0  0  0
  2  8  1  0  0  0  0
  3  4  2  0  0  0  0
  3 10  1  0  0  0  0
  4  5  1  0  0  0  0
  4 12  1  0  0  0  0
  5 11  1  0  0  0  0
  5 13  2  0  0  0  0
  6  9  1  0  0  0  0
  7  9  1  0  0  0  0
  8  9  1  0  0  0  0
 10 14  1  0  0  0  0
 10 15  1  0  0  0  0
 10 16  1  0  0  0  0
  1 17  1  0  0  0  0
  6 18  1  0  0  0  0
  6 19  1  0  0  0  0
  6 20  1  0  0  0  0
  7 21  1  0  0  0  0
  7 22  1  0  0  0  0
  7 23  1  0  0  0  0
  8 24  1  0  0  0  0
  8 25  1  0  0  0  0
  9 26  1  0  0  0  0
 11 27  1  0  0  0  0
 12 28  1  0  0  0  0
 12 29  1  0  0  0  0
M  END
> <HYBRID receptor title>
5S18(A) > WOY(A-201)

> <HYBRID receptor filename>
experiments/data/docking/5s18.oedu

> <HYBRID Chemgauss4 score>
-7.651011

> <HYBRID receptor title>
5S18(A) > WOY(A-201)

> <HYBRID receptor filename>
experiments/data/docking/5s18.oedu

> <Dock Type>
Hybrid

$$$$
MOL0421
  -OEChem-07032415493D

 26 27  0     0  0  0  0  0  0999 V2000
   -1.0712   14.9072   -2.0791 C   0  0  0  0  0  0  0  0  0  0  0  0
    1.2789   14.8177   -1.6040 C   0  0  0  0  0  0  0  0  0  0  0  0
    0.3045   14.8119   -2.5240 C   0  0  0  0  0  0  0  0  0  0  0  0
   -1.4057   15.0015   -0.7806 C   0  0  0  0  0  0  0  0  0  0  0  0
   -0.2966   15.0062    0.2379 C   0  0  0  0  0  0  0  0  0  0  0  0
   -3.7731   14.5286   -1.0077 C   0  0  0  0  0  0  0  0  0  0  0  0
   -5.5697   13.7593    0.6545 C   0  0  0  0  0  0  0  0  0  0  0  0
   -5.0274   15.0604    1.1650 C   0  0  0  0  0  0  0  0  0  0  0  0
   -5.0742   14.7890   -0.2952 C   0  0  0  0  0  0  0  0  0  0  0  0
    0.5595   14.7118   -3.9943 C   0  0  0  0  0  0  0  0  0  0  0  0
    0.9896   14.9116   -0.2679 N   0  0  0  0  0  0  0  0  0  0  0  0
   -2.6923   15.0924   -0.3442 N   0  0  0  0  0  0  0  0  0  0  0  0
   -0.5437   15.0900    1.4395 O   0  0  0  0  0  0  0  0  0  0  0  0
   -3.7245   13.8752   -2.0469 O   0  0  0  0  0  0  0  0  0  0  0  0
   -0.5973   14.7284   -4.6894 F   0  0  0  0  0  0  0  0  0  0  0  0
    1.3168   15.7401   -4.4306 F   0  0  0  0  0  0  0  0  0  0  0  0
    1.2063   13.5666   -4.2979 F   0  0  0  0  0  0  0  0  0  0  0  0
   -1.8433   14.9004   -2.8441 H   0  0  0  0  0  0  0  0  0  0  0  0
    2.3309   14.7502   -1.8526 H   0  0  0  0  0  0  0  0  0  0  0  0
   -4.9862   12.8649    0.8359 H   0  0  0  0  0  0  0  0  0  0  0  0
   -6.6418   13.6096    0.6928 H   0  0  0  0  0  0  0  0  0  0  0  0
   -5.7345   15.7865    1.5474 H   0  0  0  0  0  0  0  0  0  0  0  0
   -4.0799   15.0391    1.6897 H   0  0  0  0  0  0  0  0  0  0  0  0
   -5.7765   15.3200   -0.9018 H   0  0  0  0  0  0  0  0  0  0  0  0
    1.7705   14.9110    0.3818 H   0  0  0  0  0  0  0  0  0  0  0  0
   -2.8510   15.6068    0.5194 H   0  0  0  0  0  0  0  0  0  0  0  0
  1  3  1  0  0  0  0
  1  4  2  0  0  0  0
  2  3  2  0  0  0  0
  2 11  1  0  0  0  0
  3 10  1  0  0  0  0
  4  5  1  0  0  0  0
  4 12  1  0  0  0  0
  5 11  1  0  0  0  0
  5 13  2  0  0  0  0
  6  9  1  0  0  0  0
  6 12  1  0  0  0  0
  6 14  2  0  0  0  0
  7  8  1  0  0  0  0
  7  9  1  0  0  0  0
  8  9  1  0  0  0  0
 10 15  1  0  0  0  0
 10 16  1  0  0  0  0
 10 17  1  0  0  0  0
  1 18  1  0  0  0  0
  2 19  1  0  0  0  0
  7 20  1  0  0  0  0
  7 21  1  0  0  0  0
  8 22  1  0  0  0  0
  8 23  1  0  0  0  0
  9 24  1  0  0  0  0
 11 25  1  0  0  0  0
 12 26  1  0  0  0  0
M  END
> <HYBRID receptor title>
5S18(A) > WOY(A-201)

> <HYBRID receptor filename>
experiments/data/docking/5s18.oedu

> <HYBRID Chemgauss4 score>
-7.649107

> <HYBRID receptor title>
5S18(A) > WOY(A-201)

> <HYBRID receptor filename>
experiments/data/docking/5s18.oedu

> <Dock Type>
Hybrid

$$$$
MOL0416
  -OEChem-07032415493D

 26 26  0     0  0  0  0  0  0999 V2000
   -1.9229   14.9025   -0.7109 C   0  0  0  0  0  0  0  0  0  0  0  0
   -1.7326   14.9454    1.6805 C   0  0  0  0  0  0  0  0  0  0  0  0
   -1.1163   14.9716    0.4908 C   0  0  0  0  0  0  0  0  0  0  0  0
   -3.2638   14.8137   -0.6768 C   0  0  0  0  0  0  0  0  0  0  0  0
   -3.9377   14.7854    0.6694 C   0  0  0  0  0  0  0  0  0  0  0  0
    0.8056   14.3728   -0.9322 C   0  0  0  0  0  0  0  0  0  0  0  0
    0.4475   15.5589   -4.3110 C   0  0  0  0  0  0  0  0  0  0  0  0
    0.3677   15.0687    0.3329 C   0  0  0  0  0  0  0  0  0  0  0  0
    1.1760   14.7823   -3.2349 C   0  0  0  0  0  0  0  0  0  0  0  0
   -3.0971   14.8553    1.7683 N   0  0  0  0  0  0  0  0  0  0  0  0
   -4.0779   14.7456   -1.7680 N   0  0  0  0  0  0  0  0  0  0  0  0
   -5.1610   14.7051    0.7649 O   0  0  0  0  0  0  0  0  0  0  0  0
    1.1252   13.1955   -1.0317 O   0  0  0  0  0  0  0  0  0  0  0  0
    0.7844   15.2833   -1.9518 O   0  0  0  0  0  0  0  0  0  0  0  0
   -1.4024   14.9250   -1.6646 H   0  0  0  0  0  0  0  0  0  0  0  0
   -1.2038   14.9925    2.6244 H   0  0  0  0  0  0  0  0  0  0  0  0
   -0.6355   15.4466   -4.2081 H   0  0  0  0  0  0  0  0  0  0  0  0
    0.6995   16.6229   -4.2565 H   0  0  0  0  0  0  0  0  0  0  0  0
    0.7457   15.2118   -5.3054 H   0  0  0  0  0  0  0  0  0  0  0  0
    0.6519   16.1216    0.2846 H   0  0  0  0  0  0  0  0  0  0  0  0
    0.8475   14.5958    1.1917 H   0  0  0  0  0  0  0  0  0  0  0  0
    2.2583   14.8988   -3.3434 H   0  0  0  0  0  0  0  0  0  0  0  0
    0.9227   13.7190   -3.2899 H   0  0  0  0  0  0  0  0  0  0  0  0
   -3.5167   14.8389    2.6933 H   0  0  0  0  0  0  0  0  0  0  0  0
   -3.6643   14.7616   -2.6754 H   0  0  0  0  0  0  0  0  0  0  0  0
   -5.0627   14.6818   -1.6272 H   0  0  0  0  0  0  0  0  0  0  0  0
  1  3  1  0  0  0  0
  1  4  2  0  0  0  0
  2  3  2  0  0  0  0
  2 10  1  0  0  0  0
  3  8  1  0  0  0  0
  4  5  1  0  0  0  0
  4 11  1  0  0  0  0
  5 10  1  0  0  0  0
  5 12  2  0  0  0  0
  6  8  1  0  0  0  0
  6 13  2  0  0  0  0
  6 14  1  0  0  0  0
  7  9  1  0  0  0  0
  9 14  1  0  0  0  0
  1 15  1  0  0  0  0
  2 16  1  0  0  0  0
  7 17  1  0  0  0  0
  7 18  1  0  0  0  0
  7 19  1  0  0  0  0
  8 20  1  0  0  0  0
  8 21  1  0  0  0  0
  9 22  1  0  0  0  0
  9 23  1  0  0  0  0
 10 24  1  0  0  0  0
 11 25  1  0  0  0  0
 11 26  1  0  0  0  0
M  END
> <HYBRID receptor title>
5S18(A) > WOY(A-201)

> <HYBRID receptor filename>
experiments/data/docking/5s18.oedu

> <HYBRID Chemgauss4 score>
-7.645479

> <HYBRID receptor title>
5S18(A) > WOY(A-201)

> <HYBRID receptor filename>
experiments/data/docking/5s18.oedu

> <Dock Type>
Hybrid

$$$$
MOL0107
  -OEChem-07032415493D

 23 23  0     0  0  0  0  0  0999 V2000
   -3.6593   14.6881   -1.2292 C   0  0  0  0  0  0  0  0  0  0  0  0
   -5.1090   14.6321    0.6818 C   0  0  0  0  0  0  0  0  0  0  0  0
   -4.9856   14.5998   -0.6522 C   0  0  0  0  0  0  0  0  0  0  0  0
   -2.5505   14.8006   -0.4777 C   0  0  0  0  0  0  0  0  0  0  0  0
   -2.7100   14.8353    1.0192 C   0  0  0  0  0  0  0  0  0  0  0  0
   -0.9564   14.8691   -2.3617 C   0  0  0  0  0  0  0  0  0  0  0  0
   -6.1480   14.4770   -1.5851 C   0  0  0  0  0  0  0  0  0  0  0  0
   -0.9514   13.4430   -2.8431 C   0  0  0  0  0  0  0  0  0  0  0  0
   -4.0093   14.7460    1.4913 N   0  0  0  0  0  0  0  0  0  0  0  0
   -1.2777   14.8875   -0.9577 N   0  0  0  0  0  0  0  0  0  0  0  0
   -1.7331   14.9369    1.7591 O   0  0  0  0  0  0  0  0  0  0  0  0
   -5.7389   14.4693   -2.8713 F   0  0  0  0  0  0  0  0  0  0  0  0
   -6.8340   13.3359   -1.3645 F   0  0  0  0  0  0  0  0  0  0  0  0
   -7.0048   15.5085   -1.4314 F   0  0  0  0  0  0  0  0  0  0  0  0
   -0.6654   13.3704   -4.1608 F   0  0  0  0  0  0  0  0  0  0  0  0
   -0.0421   12.7016   -2.1750 F   0  0  0  0  0  0  0  0  0  0  0  0
   -2.1630   12.8740   -2.6542 F   0  0  0  0  0  0  0  0  0  0  0  0
   -3.5826   14.6603   -2.3129 H   0  0  0  0  0  0  0  0  0  0  0  0
   -6.0626   14.5717    1.1916 H   0  0  0  0  0  0  0  0  0  0  0  0
   -1.7034   15.4612   -2.8976 H   0  0  0  0  0  0  0  0  0  0  0  0
    0.0246   15.3328   -2.5005 H   0  0  0  0  0  0  0  0  0  0  0  0
   -4.1554   14.7661    2.4964 H   0  0  0  0  0  0  0  0  0  0  0  0
   -0.5277   14.9711   -0.2917 H   0  0  0  0  0  0  0  0  0  0  0  0
  1  3  1  0  0  0  0
  1  4  2  0  0  0  0
  2  3  2  0  0  0  0
  2  9  1  0  0  0  0
  3  7  1  0  0  0  0
  4  5  1  0  0  0  0
  4 10  1  0  0  0  0
  5  9  1  0  0  0  0
  5 11  2  0  0  0  0
  6  8  1  0  0  0  0
  6 10  1  0  0  0  0
  7 12  1  0  0  0  0
  7 13  1  0  0  0  0
  7 14  1  0  0  0  0
  8 15  1  0  0  0  0
  8 16  1  0  0  0  0
  8 17  1  0  0  0  0
  1 18  1  0  0  0  0
  2 19  1  0  0  0  0
  6 20  1  0  0  0  0
  6 21  1  0  0  0  0
  9 22  1  0  0  0  0
 10 23  1  0  0  0  0
M  END
> <HYBRID receptor title>
5S18(A) > WOY(A-201)

> <HYBRID receptor filename>
experiments/data/docking/5s18.oedu

> <HYBRID Chemgauss4 score>
-7.634864

> <HYBRID receptor title>
5S18(A) > WOY(A-201)

> <HYBRID receptor filename>
experiments/data/docking/5s18.oedu

> <Dock Type>
Hybrid

$$$$
MOL0307
  -OEChem-07032415493D

 32 32  0     0  0  0  0  0  0999 V2000
   -1.0658   14.6138   -1.5070 C   0  0  0  0  0  0  0  0  0  0  0  0
    1.3264   14.6264   -1.3224 C   0  0  0  0  0  0  0  0  0  0  0  0
    0.2481   14.5224   -2.1112 C   0  0  0  0  0  0  0  0  0  0  0  0
   -1.2428   14.7991   -0.1874 C   0  0  0  0  0  0  0  0  0  0  0  0
   -0.0188   14.9134    0.6822 C   0  0  0  0  0  0  0  0  0  0  0  0
   -3.6649   14.7989   -0.2893 C   0  0  0  0  0  0  0  0  0  0  0  0
   -7.0600   14.8269   -1.1527 C   0  0  0  0  0  0  0  0  0  0  0  0
   -7.5402   15.2966    1.2661 C   0  0  0  0  0  0  0  0  0  0  0  0
   -5.6075   13.8140    0.6522 C   0  0  0  0  0  0  0  0  0  0  0  0
   -7.0209   14.2625    0.2691 C   0  0  0  0  0  0  0  0  0  0  0  0
    0.3255   14.3157   -3.5905 C   0  0  0  0  0  0  0  0  0  0  0  0
    1.1988   14.8155    0.0287 N   0  0  0  0  0  0  0  0  0  0  0  0
   -2.4691   14.8879    0.3977 N   0  0  0  0  0  0  0  0  0  0  0  0
   -0.1206   15.0832    1.8958 O   0  0  0  0  0  0  0  0  0  0  0  0
   -3.7896   14.6305   -1.4984 O   0  0  0  0  0  0  0  0  0  0  0  0
   -4.7076   14.9270    0.5850 O   0  0  0  0  0  0  0  0  0  0  0  0
   -0.9072   14.2465   -4.1356 F   0  0  0  0  0  0  0  0  0  0  0  0
    0.9854   15.3277   -4.1919 F   0  0  0  0  0  0  0  0  0  0  0  0
    0.9724   13.1688   -3.8871 F   0  0  0  0  0  0  0  0  0  0  0  0
   -1.9246   14.5264   -2.1674 H   0  0  0  0  0  0  0  0  0  0  0  0
    2.3421   14.5689   -1.6942 H   0  0  0  0  0  0  0  0  0  0  0  0
   -6.4166   15.7083   -1.2476 H   0  0  0  0  0  0  0  0  0  0  0  0
   -6.7266   14.0831   -1.8831 H   0  0  0  0  0  0  0  0  0  0  0  0
   -8.0790   15.1217   -1.4235 H   0  0  0  0  0  0  0  0  0  0  0  0
   -6.9028   16.1871    1.2704 H   0  0  0  0  0  0  0  0  0  0  0  0
   -8.5548   15.6139    1.0043 H   0  0  0  0  0  0  0  0  0  0  0  0
   -7.5628   14.8911    2.2838 H   0  0  0  0  0  0  0  0  0  0  0  0
   -5.5844   13.4079    1.6692 H   0  0  0  0  0  0  0  0  0  0  0  0
   -5.2474   13.0451   -0.0396 H   0  0  0  0  0  0  0  0  0  0  0  0
   -7.6827   13.3878    0.2930 H   0  0  0  0  0  0  0  0  0  0  0  0
    2.0525   14.8868    0.5746 H   0  0  0  0  0  0  0  0  0  0  0  0
   -2.5075   15.0286    1.4042 H   0  0  0  0  0  0  0  0  0  0  0  0
  1  3  1  0  0  0  0
  1  4  2  0  0  0  0
  2  3  2  0  0  0  0
  2 12  1  0  0  0  0
  3 11  1  0  0  0  0
  4  5  1  0  0  0  0
  4 13  1  0  0  0  0
  5 12  1  0  0  0  0
  5 14  2  0  0  0  0
  6 13  1  0  0  0  0
  6 15  2  0  0  0  0
  6 16  1  0  0  0  0
  7 10  1  0  0  0  0
  8 10  1  0  0  0  0
  9 10  1  0  0  0  0
  9 16  1  0  0  0  0
 11 17  1  0  0  0  0
 11 18  1  0  0  0  0
 11 19  1  0  0  0  0
  1 20  1  0  0  0  0
  2 21  1  0  0  0  0
  7 22  1  0  0  0  0
  7 23  1  0  0  0  0
  7 24  1  0  0  0  0
  8 25  1  0  0  0  0
  8 26  1  0  0  0  0
  8 27  1  0  0  0  0
  9 28  1  0  0  0  0
  9 29  1  0  0  0  0
 10 30  1  0  0  0  0
 12 31  1  0  0  0  0
 13 32  1  0  0  0  0
M  END
> <HYBRID receptor title>
5S18(A) > WOY(A-201)

> <HYBRID receptor filename>
experiments/data/docking/5s18.oedu

> <HYBRID Chemgauss4 score>
-7.630505

> <HYBRID receptor title>
5S18(A) > WOY(A-201)

> <HYBRID receptor filename>
experiments/data/docking/5s18.oedu

> <Dock Type>
Hybrid

$$$$
MOL0353
  -OEChem-07032415493D

 24 24  0     0  0  0  0  0  0999 V2000
   -4.8321   14.7444    0.9689 C   0  0  0  0  0  0  0  0  0  0  0  0
   -3.3282   14.7893   -0.9364 C   0  0  0  0  0  0  0  0  0  0  0  0
   -2.2435   14.8385   -0.1224 C   0  0  0  0  0  0  0  0  0  0  0  0
   -4.6848   14.7288   -0.3647 C   0  0  0  0  0  0  0  0  0  0  0  0
   -2.4502   14.8452    1.3731 C   0  0  0  0  0  0  0  0  0  0  0  0
   -7.7065   13.3088    0.4644 C   0  0  0  0  0  0  0  0  0  0  0  0
   -6.7950   13.0772   -0.7261 C   0  0  0  0  0  0  0  0  0  0  0  0
   -3.1849   14.8093   -2.4414 C   0  0  0  0  0  0  0  0  0  0  0  0
   -3.7564   14.8014    1.8072 N   0  0  0  0  0  0  0  0  0  0  0  0
   -0.9291   14.8869   -0.4967 N   0  0  0  0  0  0  0  0  0  0  0  0
   -1.4940   14.8898    2.1460 O   0  0  0  0  0  0  0  0  0  0  0  0
   -1.8883   14.8792   -2.7878 F   0  0  0  0  0  0  0  0  0  0  0  0
   -3.7097   13.6964   -2.9812 F   0  0  0  0  0  0  0  0  0  0  0  0
   -3.8216   15.8737   -2.9590 F   0  0  0  0  0  0  0  0  0  0  0  0
   -6.1342   14.6419   -1.3311 S   0  0  0  0  0  0  0  0  0  0  0  0
   -5.7933   14.7077    1.4699 H   0  0  0  0  0  0  0  0  0  0  0  0
   -7.1487   13.7953    1.2710 H   0  0  0  0  0  0  0  0  0  0  0  0
   -8.5486   13.9594    0.2054 H   0  0  0  0  0  0  0  0  0  0  0  0
   -8.1023   12.3660    0.8565 H   0  0  0  0  0  0  0  0  0  0  0  0
   -7.3466   12.5909   -1.5366 H   0  0  0  0  0  0  0  0  0  0  0  0
   -5.9612   12.4276   -0.4443 H   0  0  0  0  0  0  0  0  0  0  0  0
   -3.9292   14.8122    2.8083 H   0  0  0  0  0  0  0  0  0  0  0  0
   -0.7124   14.8875   -1.4680 H   0  0  0  0  0  0  0  0  0  0  0  0
   -0.2344   14.9201    0.2146 H   0  0  0  0  0  0  0  0  0  0  0  0
  1  4  2  0  0  0  0
  1  9  1  0  0  0  0
  2  3  2  0  0  0  0
  2  4  1  0  0  0  0
  2  8  1  0  0  0  0
  3  5  1  0  0  0  0
  3 10  1  0  0  0  0
  4 15  1  0  0  0  0
  5  9  1  0  0  0  0
  5 11  2  0  0  0  0
  6  7  1  0  0  0  0
  7 15  1  0  0  0  0
  8 12  1  0  0  0  0
  8 13  1  0  0  0  0
  8 14  1  0  0  0  0
  1 16  1  0  0  0  0
  6 17  1  0  0  0  0
  6 18  1  0  0  0  0
  6 19  1  0  0  0  0
  7 20  1  0  0  0  0
  7 21  1  0  0  0  0
  9 22  1  0  0  0  0
 10 23  1  0  0  0  0
 10 24  1  0  0  0  0
M  END
> <HYBRID receptor title>
5S18(A) > WOY(A-201)

> <HYBRID receptor filename>
experiments/data/docking/5s18.oedu

> <HYBRID Chemgauss4 score>
-7.629941

> <HYBRID receptor title>
5S18(A) > WOY(A-201)

> <HYBRID receptor filename>
experiments/data/docking/5s18.oedu

> <Dock Type>
Hybrid

$$$$
MOL0419
  -OEChem-07032415493D

 32 32  0     1  0  0  0  0  0999 V2000
   -4.1450   14.9558   -1.0880 C   0  0  0  0  0  0  0  0  0  0  0  0
   -5.1158   14.8445    1.1033 C   0  0  0  0  0  0  0  0  0  0  0  0
   -5.3055   14.9059   -0.2218 C   0  0  0  0  0  0  0  0  0  0  0  0
   -2.8876   14.9425   -0.6127 C   0  0  0  0  0  0  0  0  0  0  0  0
   -2.6951   14.8733    0.8791 C   0  0  0  0  0  0  0  0  0  0  0  0
    0.5902   15.0985   -3.3400 C   0  0  0  0  0  0  0  0  0  0  0  0
    1.1752   14.5343   -0.9698 C   0  0  0  0  0  0  0  0  0  0  0  0
   -1.8680   13.2288   -3.0497 C   0  0  0  0  0  0  0  0  0  0  0  0
    0.3952   14.0832   -2.2103 C   0  0  0  0  0  0  0  0  0  0  0  0
   -1.0897   13.8113   -1.8710 C   0  0  1  0  0  0  0  0  0  0  0  0
   -6.6574   14.9261   -0.8612 C   0  0  0  0  0  0  0  0  0  0  0  0
   -3.8538   14.8287    1.6371 N   0  0  0  0  0  0  0  0  0  0  0  0
   -1.7624   14.9867   -1.3685 N   0  0  0  0  0  0  0  0  0  0  0  0
   -1.5693   14.8582    1.3735 O   0  0  0  0  0  0  0  0  0  0  0  0
   -6.5572   14.9907   -2.2056 F   0  0  0  0  0  0  0  0  0  0  0  0
   -7.3606   13.8160   -0.5537 F   0  0  0  0  0  0  0  0  0  0  0  0
   -7.3731   15.9938   -0.4495 F   0  0  0  0  0  0  0  0  0  0  0  0
   -4.3221   15.0056   -2.1590 H   0  0  0  0  0  0  0  0  0  0  0  0
   -5.9281   14.8045    1.8184 H   0  0  0  0  0  0  0  0  0  0  0  0
    0.1688   16.0743   -3.0784 H   0  0  0  0  0  0  0  0  0  0  0  0
    1.6491   15.2360   -3.5823 H   0  0  0  0  0  0  0  0  0  0  0  0
    0.0817   14.7623   -4.2511 H   0  0  0  0  0  0  0  0  0  0  0  0
    0.7783   15.4815   -0.5886 H   0  0  0  0  0  0  0  0  0  0  0  0
    2.2321   14.6911   -1.2101 H   0  0  0  0  0  0  0  0  0  0  0  0
    1.1133   13.7976   -0.1619 H   0  0  0  0  0  0  0  0  0  0  0  0
   -1.8663   13.9181   -3.8993 H   0  0  0  0  0  0  0  0  0  0  0  0
   -2.9067   13.0073   -2.7835 H   0  0  0  0  0  0  0  0  0  0  0  0
   -1.4143   12.2873   -3.3774 H   0  0  0  0  0  0  0  0  0  0  0  0
    0.8393   13.1347   -2.5410 H   0  0  0  0  0  0  0  0  0  0  0  0
   -1.1286   13.0768   -1.0564 H   0  0  0  0  0  0  0  0  0  0  0  0
   -3.7627   14.7815    2.6477 H   0  0  0  0  0  0  0  0  0  0  0  0
   -1.3738   15.8904   -1.5950 H   0  0  0  0  0  0  0  0  0  0  0  0
  1  3  1  0  0  0  0
  1  4  2  0  0  0  0
  2  3  2  0  0  0  0
  2 12  1  0  0  0  0
  3 11  1  0  0  0  0
  4  5  1  0  0  0  0
  4 13  1  0  0  0  0
  5 12  1  0  0  0  0
  5 14  2  0  0  0  0
  6  9  1  0  0  0  0
  7  9  1  0  0  0  0
  8 10  1  0  0  0  0
  9 10  1  0  0  0  0
 10 13  1  0  0  0  0
 11 15  1  0  0  0  0
 11 16  1  0  0  0  0
 11 17  1  0  0  0  0
  1 18  1  0  0  0  0
  2 19  1  0  0  0  0
  6 20  1  0  0  0  0
  6 21  1  0  0  0  0
  6 22  1  0  0  0  0
  7 23  1  0  0  0  0
  7 24  1  0  0  0  0
  7 25  1  0  0  0  0
  8 26  1  0  0  0  0
  8 27  1  0  0  0  0
  8 28  1  0  0  0  0
  9 29  1  0  0  0  0
 10 30  1  0  0  0  0
 12 31  1  0  0  0  0
 13 32  1  0  0  0  0
M  END
> <HYBRID receptor title>
5S18(A) > WOY(A-201)

> <HYBRID receptor filename>
experiments/data/docking/5s18.oedu

> <HYBRID Chemgauss4 score>
-7.614187

> <HYBRID receptor title>
5S18(A) > WOY(A-201)

> <HYBRID receptor filename>
experiments/data/docking/5s18.oedu

> <Dock Type>
Hybrid

$$$$
MOL0153
  -OEChem-07032415493D

 28 28  0     0  0  0  0  0  0999 V2000
   -3.1226   14.7314   -0.8428 C   0  0  0  0  0  0  0  0  0  0  0  0
   -4.6137   14.6895    1.0364 C   0  0  0  0  0  0  0  0  0  0  0  0
   -4.4631   14.6784   -0.2951 C   0  0  0  0  0  0  0  0  0  0  0  0
   -2.0268   14.7908   -0.0665 C   0  0  0  0  0  0  0  0  0  0  0  0
   -2.2168   14.8024    1.4272 C   0  0  0  0  0  0  0  0  0  0  0  0
   -0.3785   14.2627   -1.7697 C   0  0  0  0  0  0  0  0  0  0  0  0
    1.3250   14.5638   -3.5823 C   0  0  0  0  0  0  0  0  0  0  0  0
    1.9553   13.3598   -1.4730 C   0  0  0  0  0  0  0  0  0  0  0  0
    1.1041   14.4767   -2.0733 C   0  0  0  0  0  0  0  0  0  0  0  0
   -5.6091   14.6140   -1.2539 C   0  0  0  0  0  0  0  0  0  0  0  0
   -3.5282   14.7494    1.8706 N   0  0  0  0  0  0  0  0  0  0  0  0
   -0.7599   14.8406   -0.5632 N   0  0  0  0  0  0  0  0  0  0  0  0
   -1.2506   14.8560    2.1858 O   0  0  0  0  0  0  0  0  0  0  0  0
   -1.1275   13.6483   -2.5276 O   0  0  0  0  0  0  0  0  0  0  0  0
   -5.1733   14.6165   -2.5314 F   0  0  0  0  0  0  0  0  0  0  0  0
   -6.3384   13.4936   -1.0700 F   0  0  0  0  0  0  0  0  0  0  0  0
   -6.4329   15.6717   -1.0973 F   0  0  0  0  0  0  0  0  0  0  0  0
   -3.0264   14.7213   -1.9254 H   0  0  0  0  0  0  0  0  0  0  0  0
   -5.5795   14.6526    1.5253 H   0  0  0  0  0  0  0  0  0  0  0  0
    1.0302   13.6350   -4.0827 H   0  0  0  0  0  0  0  0  0  0  0  0
    0.7361   15.3786   -4.0167 H   0  0  0  0  0  0  0  0  0  0  0  0
    2.3803   14.7408   -3.8169 H   0  0  0  0  0  0  0  0  0  0  0  0
    1.6843   12.3904   -1.9041 H   0  0  0  0  0  0  0  0  0  0  0  0
    1.8253   13.2955   -0.3868 H   0  0  0  0  0  0  0  0  0  0  0  0
    3.0182   13.5323   -1.6705 H   0  0  0  0  0  0  0  0  0  0  0  0
    1.4110   15.4245   -1.6122 H   0  0  0  0  0  0  0  0  0  0  0  0
   -3.7056   14.7549    2.8708 H   0  0  0  0  0  0  0  0  0  0  0  0
   -0.0511   15.3288   -0.0203 H   0  0  0  0  0  0  0  0  0  0  0  0
  1  3  1  0  0  0  0
  1  4  2  0  0  0  0
  2  3  2  0  0  0  0
  2 11  1  0  0  0  0
  3 10  1  0  0  0  0
  4  5  1  0  0  0  0
  4 12  1  0  0  0  0
  5 11  1  0  0  0  0
  5 13  2  0  0  0  0
  6  9  1  0  0  0  0
  6 12  1  0  0  0  0
  6 14  2  0  0  0  0
  7  9  1  0  0  0  0
  8  9  1  0  0  0  0
 10 15  1  0  0  0  0
 10 16  1  0  0  0  0
 10 17  1  0  0  0  0
  1 18  1  0  0  0  0
  2 19  1  0  0  0  0
  7 20  1  0  0  0  0
  7 21  1  0  0  0  0
  7 22  1  0  0  0  0
  8 23  1  0  0  0  0
  8 24  1  0  0  0  0
  8 25  1  0  0  0  0
  9 26  1  0  0  0  0
 11 27  1  0  0  0  0
 12 28  1  0  0  0  0
M  END
> <HYBRID receptor title>
5S18(A) > WOY(A-201)

> <HYBRID receptor filename>
experiments/data/docking/5s18.oedu

> <HYBRID Chemgauss4 score>
-7.612953

> <HYBRID receptor title>
5S18(A) > WOY(A-201)

> <HYBRID receptor filename>
experiments/data/docking/5s18.oedu

> <Dock Type>
Hybrid

$$$$
MOL0065
  -OEChem-07032415493D

 26 26  0     0  0  0  0  0  0999 V2000
   -1.1519   14.6481   -1.7714 C   0  0  0  0  0  0  0  0  0  0  0  0
    1.2369   14.6221   -1.5483 C   0  0  0  0  0  0  0  0  0  0  0  0
    0.1713   14.6128   -2.3609 C   0  0  0  0  0  0  0  0  0  0  0  0
   -1.3499   14.6902   -0.4425 C   0  0  0  0  0  0  0  0  0  0  0  0
   -0.1400   14.6999    0.4538 C   0  0  0  0  0  0  0  0  0  0  0  0
   -3.7699   14.7199   -0.5825 C   0  0  0  0  0  0  0  0  0  0  0  0
   -7.1746   14.8072    0.7756 C   0  0  0  0  0  0  0  0  0  0  0  0
   -6.1274   14.7602   -0.3167 C   0  0  0  0  0  0  0  0  0  0  0  0
    0.2723   14.5676   -3.8524 C   0  0  0  0  0  0  0  0  0  0  0  0
    1.0878   14.6642   -0.1868 N   0  0  0  0  0  0  0  0  0  0  0  0
   -2.5853   14.7244    0.1291 N   0  0  0  0  0  0  0  0  0  0  0  0
   -0.2611   14.7375    1.6769 O   0  0  0  0  0  0  0  0  0  0  0  0
   -3.8754   14.6849   -1.8046 O   0  0  0  0  0  0  0  0  0  0  0  0
   -4.8264   14.7603    0.2837 O   0  0  0  0  0  0  0  0  0  0  0  0
   -0.9516   14.5676   -4.4216 F   0  0  0  0  0  0  0  0  0  0  0  0
    0.9481   15.6338   -4.3295 F   0  0  0  0  0  0  0  0  0  0  0  0
    0.9172   13.4548   -4.2617 F   0  0  0  0  0  0  0  0  0  0  0  0
   -2.0001   14.6397   -2.4511 H   0  0  0  0  0  0  0  0  0  0  0  0
    2.2583   14.5976   -1.9078 H   0  0  0  0  0  0  0  0  0  0  0  0
   -7.0931   13.9365    1.4323 H   0  0  0  0  0  0  0  0  0  0  0  0
   -7.0643   15.7154    1.3770 H   0  0  0  0  0  0  0  0  0  0  0  0
   -8.1804   14.8315    0.3442 H   0  0  0  0  0  0  0  0  0  0  0  0
   -6.2142   15.6335   -0.9697 H   0  0  0  0  0  0  0  0  0  0  0  0
   -6.2382   13.8516   -0.9166 H   0  0  0  0  0  0  0  0  0  0  0  0
    1.9327   14.6691    0.3771 H   0  0  0  0  0  0  0  0  0  0  0  0
   -2.6397   14.7552    1.1442 H   0  0  0  0  0  0  0  0  0  0  0  0
  1  3  1  0  0  0  0
  1  4  2  0  0  0  0
  2  3  2  0  0  0  0
  2 10  1  0  0  0  0
  3  9  1  0  0  0  0
  4  5  1  0  0  0  0
  4 11  1  0  0  0  0
  5 10  1  0  0  0  0
  5 12  2  0  0  0  0
  6 11  1  0  0  0  0
  6 13  2  0  0  0  0
  6 14  1  0  0  0  0
  7  8  1  0  0  0  0
  8 14  1  0  0  0  0
  9 15  1  0  0  0  0
  9 16  1  0  0  0  0
  9 17  1  0  0  0  0
  1 18  1  0  0  0  0
  2 19  1  0  0  0  0
  7 20  1  0  0  0  0
  7 21  1  0  0  0  0
  7 22  1  0  0  0  0
  8 23  1  0  0  0  0
  8 24  1  0  0  0  0
 10 25  1  0  0  0  0
 11 26  1  0  0  0  0
M  END
> <HYBRID receptor title>
5S18(A) > WOY(A-201)

> <HYBRID receptor filename>
experiments/data/docking/5s18.oedu

> <HYBRID Chemgauss4 score>
-7.588031

> <HYBRID receptor title>
5S18(A) > WOY(A-201)

> <HYBRID receptor filename>
experiments/data/docking/5s18.oedu

> <Dock Type>
Hybrid

$$$$
MOL0240
  -OEChem-07032415493D

 27 28  0     0  0  0  0  0  0999 V2000
   -1.2796   14.8522   -2.0346 C   0  0  0  0  0  0  0  0  0  0  0  0
    1.0567   14.7716   -1.4942 C   0  0  0  0  0  0  0  0  0  0  0  0
    0.1105   14.8168   -2.4421 C   0  0  0  0  0  0  0  0  0  0  0  0
   -1.6545   14.8419   -0.7437 C   0  0  0  0  0  0  0  0  0  0  0  0
   -0.5766   14.7909    0.3065 C   0  0  0  0  0  0  0  0  0  0  0  0
   -5.1971   14.3368   -0.0241 C   0  0  0  0  0  0  0  0  0  0  0  0
   -4.8522   15.5157    0.8822 C   0  0  0  0  0  0  0  0  0  0  0  0
   -4.0542   14.3182   -1.0277 C   0  0  0  0  0  0  0  0  0  0  0  0
   -3.3340   15.4667    0.9602 C   0  0  0  0  0  0  0  0  0  0  0  0
    0.4110   14.8326   -3.9070 C   0  0  0  0  0  0  0  0  0  0  0  0
    0.7258   14.7590   -0.1646 N   0  0  0  0  0  0  0  0  0  0  0  0
   -2.9277   14.8734   -0.3006 N   0  0  0  0  0  0  0  0  0  0  0  0
   -0.8572   14.7792    1.5036 O   0  0  0  0  0  0  0  0  0  0  0  0
   -0.7249   14.8797   -4.6346 F   0  0  0  0  0  0  0  0  0  0  0  0
    1.1588   15.9050   -4.2416 F   0  0  0  0  0  0  0  0  0  0  0  0
    1.0906   13.7260   -4.2751 F   0  0  0  0  0  0  0  0  0  0  0  0
   -2.0301   14.8883   -2.8196 H   0  0  0  0  0  0  0  0  0  0  0  0
    2.1168   14.7429   -1.7141 H   0  0  0  0  0  0  0  0  0  0  0  0
   -5.2039   13.4079    0.5585 H   0  0  0  0  0  0  0  0  0  0  0  0
   -6.1740   14.4528   -0.5016 H   0  0  0  0  0  0  0  0  0  0  0  0
   -5.1768   16.4530    0.4150 H   0  0  0  0  0  0  0  0  0  0  0  0
   -5.3265   15.4364    1.8645 H   0  0  0  0  0  0  0  0  0  0  0  0
   -3.8592   13.3009   -1.3843 H   0  0  0  0  0  0  0  0  0  0  0  0
   -4.2883   14.9539   -1.8897 H   0  0  0  0  0  0  0  0  0  0  0  0
   -2.9138   16.4682    1.1035 H   0  0  0  0  0  0  0  0  0  0  0  0
   -3.0113   14.8287    1.7912 H   0  0  0  0  0  0  0  0  0  0  0  0
    1.4796   14.7243    0.5155 H   0  0  0  0  0  0  0  0  0  0  0  0
  1  3  1  0  0  0  0
  1  4  2  0  0  0  0
  2  3  2  0  0  0  0
  2 11  1  0  0  0  0
  3 10  1  0  0  0  0
  4  5  1  0  0  0  0
  4 12  1  0  0  0  0
  5 11  1  0  0  0  0
  5 13  2  0  0  0  0
  6  7  1  0  0  0  0
  6  8  1  0  0  0  0
  7  9  1  0  0  0  0
  8 12  1  0  0  0  0
  9 12  1  0  0  0  0
 10 14  1  0  0  0  0
 10 15  1  0  0  0  0
 10 16  1  0  0  0  0
  1 17  1  0  0  0  0
  2 18  1  0  0  0  0
  6 19  1  0  0  0  0
  6 20  1  0  0  0  0
  7 21  1  0  0  0  0
  7 22  1  0  0  0  0
  8 23  1  0  0  0  0
  8 24  1  0  0  0  0
  9 25  1  0  0  0  0
  9 26  1  0  0  0  0
 11 27  1  0  0  0  0
M  END
> <HYBRID receptor title>
5S18(A) > WOY(A-201)

> <HYBRID receptor filename>
experiments/data/docking/5s18.oedu

> <HYBRID Chemgauss4 score>
-7.574574

> <HYBRID receptor title>
5S18(A) > WOY(A-201)

> <HYBRID receptor filename>
experiments/data/docking/5s18.oedu

> <Dock Type>
Hybrid

$$$$
MOL0253
  -OEChem-07032415493D

 27 28  0     1  0  0  0  0  0999 V2000
   -3.2695   14.7716   -1.2524 C   0  0  0  0  0  0  0  0  0  0  0  0
   -4.7275   14.9864    0.6410 C   0  0  0  0  0  0  0  0  0  0  0  0
   -4.5984   14.9051   -0.6903 C   0  0  0  0  0  0  0  0  0  0  0  0
   -2.1637   14.7260   -0.4895 C   0  0  0  0  0  0  0  0  0  0  0  0
   -2.3295   14.8190    1.0043 C   0  0  0  0  0  0  0  0  0  0  0  0
    0.2453   15.1055   -0.4292 C   0  0  0  0  0  0  0  0  0  0  0  0
   -0.6295   13.9838   -2.2603 C   0  0  0  0  0  0  0  0  0  0  0  0
    0.8803   13.8568   -2.2381 C   0  0  1  0  0  0  0  0  0  0  0  0
    1.5336   14.2090   -3.5607 C   0  0  0  0  0  0  0  0  0  0  0  0
   -5.7573   14.9448   -1.6349 C   0  0  0  0  0  0  0  0  0  0  0  0
   -3.6310   14.9449    1.4618 N   0  0  0  0  0  0  0  0  0  0  0  0
   -0.9080   14.6004   -0.9994 N   0  0  0  0  0  0  0  0  0  0  0  0
   -1.3532   14.7829    1.7510 O   0  0  0  0  0  0  0  0  0  0  0  0
    0.3532   15.7516    0.6042 O   0  0  0  0  0  0  0  0  0  0  0  0
    1.3178   14.7824   -1.2245 O   0  0  0  0  0  0  0  0  0  0  0  0
   -5.3429   14.8440   -2.9155 F   0  0  0  0  0  0  0  0  0  0  0  0
   -6.6157   13.9305   -1.3990 F   0  0  0  0  0  0  0  0  0  0  0  0
   -6.4431   16.1010   -1.5134 F   0  0  0  0  0  0  0  0  0  0  0  0
   -3.1909   14.7076   -2.3345 H   0  0  0  0  0  0  0  0  0  0  0  0
   -5.6834   15.0876    1.1401 H   0  0  0  0  0  0  0  0  0  0  0  0
   -0.9860   14.6464   -3.0570 H   0  0  0  0  0  0  0  0  0  0  0  0
   -1.1238   13.0110   -2.3496 H   0  0  0  0  0  0  0  0  0  0  0  0
    1.1876   12.8533   -1.9214 H   0  0  0  0  0  0  0  0  0  0  0  0
    1.2299   15.2083   -3.8797 H   0  0  0  0  0  0  0  0  0  0  0  0
    1.2404   13.4928   -4.3313 H   0  0  0  0  0  0  0  0  0  0  0  0
    2.6221   14.1900   -3.4637 H   0  0  0  0  0  0  0  0  0  0  0  0
   -3.7921   15.0111    2.4626 H   0  0  0  0  0  0  0  0  0  0  0  0
  1  3  1  0  0  0  0
  1  4  2  0  0  0  0
  2  3  2  0  0  0  0
  2 11  1  0  0  0  0
  3 10  1  0  0  0  0
  4  5  1  0  0  0  0
  4 12  1  0  0  0  0
  5 11  1  0  0  0  0
  5 13  2  0  0  0  0
  6 12  1  0  0  0  0
  6 14  2  0  0  0  0
  6 15  1  0  0  0  0
  7  8  1  0  0  0  0
  7 12  1  0  0  0  0
  8  9  1  0  0  0  0
  8 15  1  0  0  0  0
 10 16  1  0  0  0  0
 10 17  1  0  0  0  0
 10 18  1  0  0  0  0
  1 19  1  0  0  0  0
  2 20  1  0  0  0  0
  7 21  1  0  0  0  0
  7 22  1  0  0  0  0
  8 23  1  0  0  0  0
  9 24  1  0  0  0  0
  9 25  1  0  0  0  0
  9 26  1  0  0  0  0
 11 27  1  0  0  0  0
M  END
> <HYBRID receptor title>
5S18(A) > WOY(A-201)

> <HYBRID receptor filename>
experiments/data/docking/5s18.oedu

> <HYBRID Chemgauss4 score>
-7.561828

> <HYBRID receptor title>
5S18(A) > WOY(A-201)

> <HYBRID receptor filename>
experiments/data/docking/5s18.oedu

> <Dock Type>
Hybrid

$$$$
MOL0170
  -OEChem-07032415493D

 17 17  0     0  0  0  0  0  0999 V2000
   -3.6351   14.6479   -0.9096 C   0  0  0  0  0  0  0  0  0  0  0  0
   -4.8610   14.7329    1.1627 C   0  0  0  0  0  0  0  0  0  0  0  0
   -4.8898   14.6281   -0.1768 C   0  0  0  0  0  0  0  0  0  0  0  0
   -2.4871   14.7694   -0.2371 C   0  0  0  0  0  0  0  0  0  0  0  0
   -2.4288   14.8870    1.2392 C   0  0  0  0  0  0  0  0  0  0  0  0
   -6.1538   14.4908   -0.9646 C   0  0  0  0  0  0  0  0  0  0  0  0
   -3.6756   14.8576    1.8513 N   0  0  0  0  0  0  0  0  0  0  0  0
   -1.2927   14.7833   -1.0024 N   0  3  0  0  0  0  0  0  0  0  0  0
   -1.4029   14.6820   -2.2339 O   0  5  0  0  0  0  0  0  0  0  0  0
   -1.3666   14.9987    1.8433 O   0  0  0  0  0  0  0  0  0  0  0  0
   -0.2217   14.8950   -0.3868 O   0  0  0  0  0  0  0  0  0  0  0  0
   -5.8945   14.4050   -2.2863 F   0  0  0  0  0  0  0  0  0  0  0  0
   -6.8358   13.3829   -0.6060 F   0  0  0  0  0  0  0  0  0  0  0  0
   -6.9637   15.5532   -0.7715 F   0  0  0  0  0  0  0  0  0  0  0  0
   -3.6733   14.5618   -1.9913 H   0  0  0  0  0  0  0  0  0  0  0  0
   -5.7548   14.7257    1.7748 H   0  0  0  0  0  0  0  0  0  0  0  0
   -3.7267   14.9322    2.8631 H   0  0  0  0  0  0  0  0  0  0  0  0
  1  3  1  0  0  0  0
  1  4  2  0  0  0  0
  2  3  2  0  0  0  0
  2  7  1  0  0  0  0
  3  6  1  0  0  0  0
  4  5  1  0  0  0  0
  4  8  1  0  0  0  0
  5  7  1  0  0  0  0
  5 10  2  0  0  0  0
  6 12  1  0  0  0  0
  6 13  1  0  0  0  0
  6 14  1  0  0  0  0
  8  9  1  0  0  0  0
  8 11  2  0  0  0  0
  1 15  1  0  0  0  0
  2 16  1  0  0  0  0
  7 17  1  0  0  0  0
M  CHG  2   8   1   9  -1
M  END
> <HYBRID receptor title>
5S18(A) > WOY(A-201)

> <HYBRID receptor filename>
experiments/data/docking/5s18.oedu

> <HYBRID Chemgauss4 score>
-7.556338

> <HYBRID receptor title>
5S18(A) > WOY(A-201)

> <HYBRID receptor filename>
experiments/data/docking/5s18.oedu

> <Dock Type>
Hybrid

$$$$
MOL0210
  -OEChem-07032415493D

 22 23  0     0  0  0  0  0  0999 V2000
   -4.2383   14.7571   -1.1500 C   0  0  0  0  0  0  0  0  0  0  0  0
   -5.3001   14.7041    1.0022 C   0  0  0  0  0  0  0  0  0  0  0  0
   -3.0254   14.9844   -0.6182 C   0  0  0  0  0  0  0  0  0  0  0  0
   -5.4238   14.6095   -0.3292 C   0  0  0  0  0  0  0  0  0  0  0  0
   -2.9018   15.0875    0.8751 C   0  0  0  0  0  0  0  0  0  0  0  0
   -0.6476   14.2438   -1.1650 C   0  0  0  0  0  0  0  0  0  0  0  0
   -1.4677   14.0413   -2.4036 C   0  0  0  0  0  0  0  0  0  0  0  0
   -1.8040   15.1369   -1.4526 C   0  0  0  0  0  0  0  0  0  0  0  0
   -6.7263   14.3588   -1.0202 C   0  0  0  0  0  0  0  0  0  0  0  0
   -4.0809   14.9350    1.5860 N   0  0  0  0  0  0  0  0  0  0  0  0
   -1.8135   15.2942    1.4078 O   0  0  0  0  0  0  0  0  0  0  0  0
   -6.5636   14.3107   -2.3592 F   0  0  0  0  0  0  0  0  0  0  0  0
   -7.2699   13.1871   -0.6293 F   0  0  0  0  0  0  0  0  0  0  0  0
   -7.6162   15.3364   -0.7480 F   0  0  0  0  0  0  0  0  0  0  0  0
   -4.3627   14.6768   -2.2262 H   0  0  0  0  0  0  0  0  0  0  0  0
   -6.1354   14.6061    1.6846 H   0  0  0  0  0  0  0  0  0  0  0  0
   -0.7186   13.4925   -0.3874 H   0  0  0  0  0  0  0  0  0  0  0  0
    0.3411   14.6720   -1.2798 H   0  0  0  0  0  0  0  0  0  0  0  0
   -1.0303   14.3337   -3.3507 H   0  0  0  0  0  0  0  0  0  0  0  0
   -2.0896   13.1555   -2.4556 H   0  0  0  0  0  0  0  0  0  0  0  0
   -1.6215   16.1525   -1.7399 H   0  0  0  0  0  0  0  0  0  0  0  0
   -4.0511   14.9963    2.5995 H   0  0  0  0  0  0  0  0  0  0  0  0
  1  3  2  0  0  0  0
  1  4  1  0  0  0  0
  2  4  2  0  0  0  0
  2 10  1  0  0  0  0
  3  5  1  0  0  0  0
  3  8  1  0  0  0  0
  4  9  1  0  0  0  0
  5 10  1  0  0  0  0
  5 11  2  0  0  0  0
  6  7  1  0  0  0  0
  6  8  1  0  0  0  0
  7  8  1  0  0  0  0
  9 12  1  0  0  0  0
  9 13  1  0  0  0  0
  9 14  1  0  0  0  0
  1 15  1  0  0  0  0
  2 16  1  0  0  0  0
  6 17  1  0  0  0  0
  6 18  1  0  0  0  0
  7 19  1  0  0  0  0
  7 20  1  0  0  0  0
  8 21  1  0  0  0  0
 10 22  1  0  0  0  0
M  END
> <HYBRID receptor title>
5S18(A) > WOY(A-201)

> <HYBRID receptor filename>
experiments/data/docking/5s18.oedu

> <HYBRID Chemgauss4 score>
-7.555681

> <HYBRID receptor title>
5S18(A) > WOY(A-201)

> <HYBRID receptor filename>
experiments/data/docking/5s18.oedu

> <Dock Type>
Hybrid

$$$$
MOL0360
  -OEChem-07032415493D

 26 26  0     0  0  0  0  0  0999 V2000
   -2.0091   14.5070   -0.8439 C   0  0  0  0  0  0  0  0  0  0  0  0
   -3.4486   14.6435   -0.6898 C   0  0  0  0  0  0  0  0  0  0  0  0
   -1.1466   14.6107    0.1793 C   0  0  0  0  0  0  0  0  0  0  0  0
   -3.9503   14.8790    0.5399 C   0  0  0  0  0  0  0  0  0  0  0  0
   -1.7117   14.8799    1.5418 C   0  0  0  0  0  0  0  0  0  0  0  0
   -5.4013   15.0288    0.8931 C   0  0  0  0  0  0  0  0  0  0  0  0
   -5.9181   13.7879    1.6064 C   0  0  0  0  0  0  0  0  0  0  0  0
   -4.2343   14.5148   -1.9630 C   0  0  0  0  0  0  0  0  0  0  0  0
   -7.3634   13.9060    2.0478 C   0  0  0  0  0  0  0  0  0  0  0  0
   -3.0884   14.9920    1.6141 N   0  0  0  0  0  0  0  0  0  0  0  0
    0.2080   14.4917    0.0887 N   0  0  0  0  0  0  0  0  0  0  0  0
   -0.9781   14.9899    2.5228 O   0  0  0  0  0  0  0  0  0  0  0  0
   -3.4159   14.2934   -3.0105 F   0  0  0  0  0  0  0  0  0  0  0  0
   -5.1059   13.4899   -1.8914 F   0  0  0  0  0  0  0  0  0  0  0  0
   -4.9336   15.6398   -2.2104 F   0  0  0  0  0  0  0  0  0  0  0  0
   -7.7346   12.8049    2.7383 F   0  0  0  0  0  0  0  0  0  0  0  0
   -8.2009   14.0276    0.9972 F   0  0  0  0  0  0  0  0  0  0  0  0
   -7.5447   14.9735    2.8528 F   0  0  0  0  0  0  0  0  0  0  0  0
   -1.6323   14.3108   -1.8448 H   0  0  0  0  0  0  0  0  0  0  0  0
   -5.4771   15.8946    1.5551 H   0  0  0  0  0  0  0  0  0  0  0  0
   -5.9615   15.2338   -0.0203 H   0  0  0  0  0  0  0  0  0  0  0  0
   -5.8103   12.9057    0.9648 H   0  0  0  0  0  0  0  0  0  0  0  0
   -5.2988   13.6174    2.4948 H   0  0  0  0  0  0  0  0  0  0  0  0
   -3.5002   15.1711    2.5259 H   0  0  0  0  0  0  0  0  0  0  0  0
    0.6143   14.3123   -0.8044 H   0  0  0  0  0  0  0  0  0  0  0  0
    0.7537   14.5876    0.9177 H   0  0  0  0  0  0  0  0  0  0  0  0
  1  2  1  0  0  0  0
  1  3  2  0  0  0  0
  2  4  2  0  0  0  0
  2  8  1  0  0  0  0
  3  5  1  0  0  0  0
  3 11  1  0  0  0  0
  4  6  1  0  0  0  0
  4 10  1  0  0  0  0
  5 10  1  0  0  0  0
  5 12  2  0  0  0  0
  6  7  1  0  0  0  0
  7  9  1  0  0  0  0
  8 13  1  0  0  0  0
  8 14  1  0  0  0  0
  8 15  1  0  0  0  0
  9 16  1  0  0  0  0
  9 17  1  0  0  0  0
  9 18  1  0  0  0  0
  1 19  1  0  0  0  0
  6 20  1  0  0  0  0
  6 21  1  0  0  0  0
  7 22  1  0  0  0  0
  7 23  1  0  0  0  0
 10 24  1  0  0  0  0
 11 25  1  0  0  0  0
 11 26  1  0  0  0  0
M  END
> <HYBRID receptor title>
5S18(A) > WOY(A-201)

> <HYBRID receptor filename>
experiments/data/docking/5s18.oedu

> <HYBRID Chemgauss4 score>
-7.553891

> <HYBRID receptor title>
5S18(A) > WOY(A-201)

> <HYBRID receptor filename>
experiments/data/docking/5s18.oedu

> <Dock Type>
Hybrid

$$$$
MOL0182
  -OEChem-07032415493D

 25 25  0     0  0  0  0  0  0999 V2000
   -2.9140   14.6453   -1.1762 C   0  0  0  0  0  0  0  0  0  0  0  0
   -4.2533   14.7420    0.8176 C   0  0  0  0  0  0  0  0  0  0  0  0
   -1.7737   14.7533   -0.4757 C   0  0  0  0  0  0  0  0  0  0  0  0
   -4.2072   14.6377   -0.5185 C   0  0  0  0  0  0  0  0  0  0  0  0
   -1.8321   14.8693    1.0151 C   0  0  0  0  0  0  0  0  0  0  0  0
   -0.5134   14.7510   -1.2234 C   0  0  0  0  0  0  0  0  0  0  0  0
    0.6673   15.0694   -4.1871 C   0  0  0  0  0  0  0  0  0  0  0  0
    0.7234   16.0002   -2.9879 C   0  0  0  0  0  0  0  0  0  0  0  0
   -5.4256   14.5123   -1.3772 C   0  0  0  0  0  0  0  0  0  0  0  0
   -3.1054   14.8541    1.5610 N   0  0  0  0  0  0  0  0  0  0  0  0
   -0.4229   15.7906   -2.1325 N   0  0  0  0  0  0  0  0  0  0  0  0
   -0.8064   14.9693    1.6840 O   0  0  0  0  0  0  0  0  0  0  0  0
    0.3402   13.8881   -1.0224 O   0  0  0  0  0  0  0  0  0  0  0  0
   -5.0921   14.4233   -2.6819 F   0  0  0  0  0  0  0  0  0  0  0  0
   -6.1375   13.4112   -1.0580 F   0  0  0  0  0  0  0  0  0  0  0  0
   -6.2348   15.5825   -1.2304 F   0  0  0  0  0  0  0  0  0  0  0  0
   -2.9065   14.5593   -2.2592 H   0  0  0  0  0  0  0  0  0  0  0  0
   -5.1784   14.7443    1.3810 H   0  0  0  0  0  0  0  0  0  0  0  0
   -0.2464   15.2503   -4.7620 H   0  0  0  0  0  0  0  0  0  0  0  0
    0.6669   14.0194   -3.8756 H   0  0  0  0  0  0  0  0  0  0  0  0
    1.5223   15.2292   -4.8528 H   0  0  0  0  0  0  0  0  0  0  0  0
    1.6394   15.8133   -2.4182 H   0  0  0  0  0  0  0  0  0  0  0  0
    0.7452   17.0413   -3.3260 H   0  0  0  0  0  0  0  0  0  0  0  0
   -3.1943   14.9303    2.5700 H   0  0  0  0  0  0  0  0  0  0  0  0
   -1.1961   16.4431   -2.2242 H   0  0  0  0  0  0  0  0  0  0  0  0
  1  3  2  0  0  0  0
  1  4  1  0  0  0  0
  2  4  2  0  0  0  0
  2 10  1  0  0  0  0
  3  5  1  0  0  0  0
  3  6  1  0  0  0  0
  4  9  1  0  0  0  0
  5 10  1  0  0  0  0
  5 12  2  0  0  0  0
  6 11  1  0  0  0  0
  6 13  2  0  0  0  0
  7  8  1  0  0  0  0
  8 11  1  0  0  0  0
  9 14  1  0  0  0  0
  9 15  1  0  0  0  0
  9 16  1  0  0  0  0
  1 17  1  0  0  0  0
  2 18  1  0  0  0  0
  7 19  1  0  0  0  0
  7 20  1  0  0  0  0
  7 21  1  0  0  0  0
  8 22  1  0  0  0  0
  8 23  1  0  0  0  0
 10 24  1  0  0  0  0
 11 25  1  0  0  0  0
M  END
> <HYBRID receptor title>
5S18(A) > WOY(A-201)

> <HYBRID receptor filename>
experiments/data/docking/5s18.oedu

> <HYBRID Chemgauss4 score>
-7.527437

> <HYBRID receptor title>
5S18(A) > WOY(A-201)

> <HYBRID receptor filename>
experiments/data/docking/5s18.oedu

> <Dock Type>
Hybrid

$$$$
MOL0123
  -OEChem-07032415493D

 33 34  0     0  0  0  0  0  0999 V2000
   -3.7815   14.5458   -0.9183 C   0  0  0  0  0  0  0  0  0  0  0  0
   -5.0971   14.5645    1.0880 C   0  0  0  0  0  0  0  0  0  0  0  0
   -5.0610   14.4427   -0.2460 C   0  0  0  0  0  0  0  0  0  0  0  0
   -2.6318   14.7583   -0.2550 C   0  0  0  0  0  0  0  0  0  0  0  0
   -2.6932   14.8926    1.2435 C   0  0  0  0  0  0  0  0  0  0  0  0
    1.3145   13.1972   -2.6724 C   0  0  0  0  0  0  0  0  0  0  0  0
    0.0211   12.5125   -2.2405 C   0  0  0  0  0  0  0  0  0  0  0  0
    1.3717   14.6482   -2.2034 C   0  0  0  0  0  0  0  0  0  0  0  0
   -1.2093   13.2955   -2.6962 C   0  0  0  0  0  0  0  0  0  0  0  0
    0.1388   15.4358   -2.6460 C   0  0  0  0  0  0  0  0  0  0  0  0
   -1.1765   14.7589   -2.2458 C   0  0  0  0  0  0  0  0  0  0  0  0
   -6.2756   14.2047   -1.0854 C   0  0  0  0  0  0  0  0  0  0  0  0
   -3.9527   14.7822    1.8097 N   0  0  0  0  0  0  0  0  0  0  0  0
   -1.4072   14.8639   -0.8233 N   0  0  0  0  0  0  0  0  0  0  0  0
   -1.6753   15.0878    1.9052 O   0  0  0  0  0  0  0  0  0  0  0  0
   -5.9527   14.1228   -2.3934 F   0  0  0  0  0  0  0  0  0  0  0  0
   -6.8910   13.0542   -0.7406 F   0  0  0  0  0  0  0  0  0  0  0  0
   -7.1679   15.2074   -0.9432 F   0  0  0  0  0  0  0  0  0  0  0  0
   -3.7756   14.4442   -2.0003 H   0  0  0  0  0  0  0  0  0  0  0  0
   -6.0109   14.5003    1.6658 H   0  0  0  0  0  0  0  0  0  0  0  0
    2.1720   12.6479   -2.2626 H   0  0  0  0  0  0  0  0  0  0  0  0
    1.4048   13.1592   -3.7646 H   0  0  0  0  0  0  0  0  0  0  0  0
   -0.0144   11.5006   -2.6620 H   0  0  0  0  0  0  0  0  0  0  0  0
    0.0065   12.4063   -1.1500 H   0  0  0  0  0  0  0  0  0  0  0  0
    1.4561   14.6795   -1.1109 H   0  0  0  0  0  0  0  0  0  0  0  0
    2.2734   15.1267   -2.6063 H   0  0  0  0  0  0  0  0  0  0  0  0
   -1.2830   13.2408   -3.7945 H   0  0  0  0  0  0  0  0  0  0  0  0
   -2.1122   12.8005   -2.2998 H   0  0  0  0  0  0  0  0  0  0  0  0
    0.1879   16.4476   -2.2066 H   0  0  0  0  0  0  0  0  0  0  0  0
    0.1739   15.5727   -3.7399 H   0  0  0  0  0  0  0  0  0  0  0  0
   -2.0079   15.2936   -2.7600 H   0  0  0  0  0  0  0  0  0  0  0  0
   -4.0326   14.8675    2.8187 H   0  0  0  0  0  0  0  0  0  0  0  0
   -0.6114   15.0269   -0.2270 H   0  0  0  0  0  0  0  0  0  0  0  0
  1  3  1  0  0  0  0
  1  4  2  0  0  0  0
  2  3  2  0  0  0  0
  2 13  1  0  0  0  0
  3 12  1  0  0  0  0
  4  5  1  0  0  0  0
  4 14  1  0  0  0  0
  5 13  1  0  0  0  0
  5 15  2  0  0  0  0
  6  7  1  0  0  0  0
  6  8  1  0  0  0  0
  7  9  1  0  0  0  0
  8 10  1  0  0  0  0
  9 11  1  0  0  0  0
 10 11  1  0  0  0  0
 11 14  1  0  0  0  0
 12 16  1  0  0  0  0
 12 17  1  0  0  0  0
 12 18  1  0  0  0  0
  1 19  1  0  0  0  0
  2 20  1  0  0  0  0
  6 21  1  0  0  0  0
  6 22  1  0  0  0  0
  7 23  1  0  0  0  0
  7 24  1  0  0  0  0
  8 25  1  0  0  0  0
  8 26  1  0  0  0  0
  9 27  1  0  0  0  0
  9 28  1  0  0  0  0
 10 29  1  0  0  0  0
 10 30  1  0  0  0  0
 11 31  1  0  0  0  0
 13 32  1  0  0  0  0
 14 33  1  0  0  0  0
M  END
> <HYBRID receptor title>
5S18(A) > WOY(A-201)

> <HYBRID receptor filename>
experiments/data/docking/5s18.oedu

> <HYBRID Chemgauss4 score>
-7.519151

> <HYBRID receptor title>
5S18(A) > WOY(A-201)

> <HYBRID receptor filename>
experiments/data/docking/5s18.oedu

> <Dock Type>
Hybrid

$$$$
MOL0350
  -OEChem-07032415493D

 26 26  0     0  0  0  0  0  0999 V2000
   -1.0595   14.6344   -1.5729 C   0  0  0  0  0  0  0  0  0  0  0  0
    1.3174   14.6957   -1.2521 C   0  0  0  0  0  0  0  0  0  0  0  0
    0.2871   14.6482   -2.1077 C   0  0  0  0  0  0  0  0  0  0  0  0
   -1.3133   14.6680   -0.2533 C   0  0  0  0  0  0  0  0  0  0  0  0
   -0.1423   14.7211    0.6919 C   0  0  0  0  0  0  0  0  0  0  0  0
   -3.7733   14.6083   -0.4524 C   0  0  0  0  0  0  0  0  0  0  0  0
    0.4505   14.6081   -3.5937 C   0  0  0  0  0  0  0  0  0  0  0  0
   -4.9941   14.5716    0.4491 C   0  0  0  0  0  0  0  0  0  0  0  0
   -6.2923   14.5412   -0.3169 C   0  0  0  0  0  0  0  0  0  0  0  0
    1.1112   14.7310    0.1021 N   0  0  0  0  0  0  0  0  0  0  0  0
   -2.5535   14.6576    0.3121 N   0  0  0  0  0  0  0  0  0  0  0  0
   -0.3108   14.7534    1.9095 O   0  0  0  0  0  0  0  0  0  0  0  0
   -0.7482   14.5637   -4.2124 F   0  0  0  0  0  0  0  0  0  0  0  0
    1.1057   15.6988   -4.0435 F   0  0  0  0  0  0  0  0  0  0  0  0
    1.1520   13.5200   -3.9757 F   0  0  0  0  0  0  0  0  0  0  0  0
   -4.9343   13.4786    1.2512 F   0  0  0  0  0  0  0  0  0  0  0  0
   -4.9916   15.6581    1.2622 F   0  0  0  0  0  0  0  0  0  0  0  0
   -6.3662   13.4534   -1.1132 F   0  0  0  0  0  0  0  0  0  0  0  0
   -6.4108   15.6348   -1.1009 F   0  0  0  0  0  0  0  0  0  0  0  0
   -7.3521   14.5163    0.5181 F   0  0  0  0  0  0  0  0  0  0  0  0
   -1.8798   14.5953   -2.2846 H   0  0  0  0  0  0  0  0  0  0  0  0
    2.3528   14.7089   -1.5694 H   0  0  0  0  0  0  0  0  0  0  0  0
   -3.7848   15.4965   -1.0917 H   0  0  0  0  0  0  0  0  0  0  0  0
   -3.7186   13.7133   -1.0790 H   0  0  0  0  0  0  0  0  0  0  0  0
    1.9250   14.7665    0.7090 H   0  0  0  0  0  0  0  0  0  0  0  0
   -2.6136   14.6835    1.3165 H   0  0  0  0  0  0  0  0  0  0  0  0
  1  3  1  0  0  0  0
  1  4  2  0  0  0  0
  2  3  2  0  0  0  0
  2 10  1  0  0  0  0
  3  7  1  0  0  0  0
  4  5  1  0  0  0  0
  4 11  1  0  0  0  0
  5 10  1  0  0  0  0
  5 12  2  0  0  0  0
  6  8  1  0  0  0  0
  6 11  1  0  0  0  0
  7 13  1  0  0  0  0
  7 14  1  0  0  0  0
  7 15  1  0  0  0  0
  8  9  1  0  0  0  0
  8 16  1  0  0  0  0
  8 17  1  0  0  0  0
  9 18  1  0  0  0  0
  9 19  1  0  0  0  0
  9 20  1  0  0  0  0
  1 21  1  0  0  0  0
  2 22  1  0  0  0  0
  6 23  1  0  0  0  0
  6 24  1  0  0  0  0
 10 25  1  0  0  0  0
 11 26  1  0  0  0  0
M  END
> <HYBRID receptor title>
5S18(A) > WOY(A-201)

> <HYBRID receptor filename>
experiments/data/docking/5s18.oedu

> <HYBRID Chemgauss4 score>
-7.501415

> <HYBRID receptor title>
5S18(A) > WOY(A-201)

> <HYBRID receptor filename>
experiments/data/docking/5s18.oedu

> <Dock Type>
Hybrid

$$$$
MOL0230
  -OEChem-07032415493D

 22 22  0     0  0  0  0  0  0999 V2000
   -4.4189   14.6577   -0.8652 C   0  0  0  0  0  0  0  0  0  0  0  0
   -5.4795   14.9586    1.2658 C   0  0  0  0  0  0  0  0  0  0  0  0
   -5.6135   14.8075   -0.0589 C   0  0  0  0  0  0  0  0  0  0  0  0
   -3.1838   14.6643   -0.3347 C   0  0  0  0  0  0  0  0  0  0  0  0
   -3.0540   14.8354    1.1557 C   0  0  0  0  0  0  0  0  0  0  0  0
   -2.0453   14.3606   -2.4531 C   0  0  0  0  0  0  0  0  0  0  0  0
   -6.9363   14.7847   -0.7565 C   0  0  0  0  0  0  0  0  0  0  0  0
   -0.6522   14.2324   -2.9973 C   0  0  0  0  0  0  0  0  0  0  0  0
   -4.2422   14.9723    1.8546 N   0  0  0  0  0  0  0  0  0  0  0  0
   -2.0503   14.5245   -1.0763 N   0  0  0  0  0  0  0  0  0  0  0  0
   -1.9493   14.8493    1.6954 O   0  0  0  0  0  0  0  0  0  0  0  0
   -3.0323   14.3190   -3.1827 O   0  0  0  0  0  0  0  0  0  0  0  0
   -6.7802   14.6198   -2.0869 F   0  0  0  0  0  0  0  0  0  0  0  0
   -7.7103   13.7758   -0.3046 F   0  0  0  0  0  0  0  0  0  0  0  0
   -7.6084   15.9387   -0.5602 F   0  0  0  0  0  0  0  0  0  0  0  0
    0.2842   14.3060   -2.0175 F   0  0  0  0  0  0  0  0  0  0  0  0
   -0.4631   13.0493   -3.6360 F   0  0  0  0  0  0  0  0  0  0  0  0
   -0.3625   15.2110   -3.8916 F   0  0  0  0  0  0  0  0  0  0  0  0
   -4.5536   14.5367   -1.9369 H   0  0  0  0  0  0  0  0  0  0  0  0
   -6.3203   15.0766    1.9383 H   0  0  0  0  0  0  0  0  0  0  0  0
   -4.2044   15.0903    2.8628 H   0  0  0  0  0  0  0  0  0  0  0  0
   -1.1556   14.5411   -0.5922 H   0  0  0  0  0  0  0  0  0  0  0  0
  1  3  1  0  0  0  0
  1  4  2  0  0  0  0
  2  3  2  0  0  0  0
  2  9  1  0  0  0  0
  3  7  1  0  0  0  0
  4  5  1  0  0  0  0
  4 10  1  0  0  0  0
  5  9  1  0  0  0  0
  5 11  2  0  0  0  0
  6  8  1  0  0  0  0
  6 10  1  0  0  0  0
  6 12  2  0  0  0  0
  7 13  1  0  0  0  0
  7 14  1  0  0  0  0
  7 15  1  0  0  0  0
  8 16  1  0  0  0  0
  8 17  1  0  0  0  0
  8 18  1  0  0  0  0
  1 19  1  0  0  0  0
  2 20  1  0  0  0  0
  9 21  1  0  0  0  0
 10 22  1  0  0  0  0
M  END
> <HYBRID receptor title>
5S18(A) > WOY(A-201)

> <HYBRID receptor filename>
experiments/data/docking/5s18.oedu

> <HYBRID Chemgauss4 score>
-7.483588

> <HYBRID receptor title>
5S18(A) > WOY(A-201)

> <HYBRID receptor filename>
experiments/data/docking/5s18.oedu

> <Dock Type>
Hybrid

$$$$
MOL0142
  -OEChem-07032415493D

 30 31  0     0  0  0  0  0  0999 V2000
   -2.7559   14.7598   -1.1026 C   0  0  0  0  0  0  0  0  0  0  0  0
   -4.4508   15.0280    0.5743 C   0  0  0  0  0  0  0  0  0  0  0  0
   -4.1499   14.8655   -0.7213 C   0  0  0  0  0  0  0  0  0  0  0  0
   -1.7555   14.8182   -0.2067 C   0  0  0  0  0  0  0  0  0  0  0  0
   -2.1139   15.0014    1.2443 C   0  0  0  0  0  0  0  0  0  0  0  0
    1.9765   14.2372   -3.2620 C   0  0  0  0  0  0  0  0  0  0  0  0
    1.0083   13.0720   -3.4755 C   0  0  0  0  0  0  0  0  0  0  0  0
    1.5509   14.9091   -1.9598 C   0  0  0  0  0  0  0  0  0  0  0  0
    0.0458   13.0990   -2.2919 C   0  0  0  0  0  0  0  0  0  0  0  0
    0.0769   14.5498   -1.8305 C   0  0  0  0  0  0  0  0  0  0  0  0
   -5.1793   14.7866   -1.8033 C   0  0  0  0  0  0  0  0  0  0  0  0
   -3.4672   15.0939    1.5261 N   0  0  0  0  0  0  0  0  0  0  0  0
   -0.4275   14.7255   -0.4999 N   0  0  0  0  0  0  0  0  0  0  0  0
   -1.2429   15.0621    2.1102 O   0  0  0  0  0  0  0  0  0  0  0  0
   -4.6011   14.6219   -3.0118 F   0  0  0  0  0  0  0  0  0  0  0  0
   -6.0198   13.7497   -1.6044 F   0  0  0  0  0  0  0  0  0  0  0  0
   -5.9205   15.9137   -1.8512 F   0  0  0  0  0  0  0  0  0  0  0  0
   -2.5348   14.6288   -2.1584 H   0  0  0  0  0  0  0  0  0  0  0  0
   -5.4658   15.1154    0.9419 H   0  0  0  0  0  0  0  0  0  0  0  0
    3.0167   13.8994   -3.2147 H   0  0  0  0  0  0  0  0  0  0  0  0
    1.8980   14.9418   -4.0981 H   0  0  0  0  0  0  0  0  0  0  0  0
    0.4614   13.2120   -4.4151 H   0  0  0  0  0  0  0  0  0  0  0  0
    1.5326   12.1132   -3.5411 H   0  0  0  0  0  0  0  0  0  0  0  0
    2.1346   14.4903   -1.1301 H   0  0  0  0  0  0  0  0  0  0  0  0
    1.7202   15.9901   -1.9802 H   0  0  0  0  0  0  0  0  0  0  0  0
   -0.9591   12.7677   -2.5714 H   0  0  0  0  0  0  0  0  0  0  0  0
    0.4179   12.4280   -1.5070 H   0  0  0  0  0  0  0  0  0  0  0  0
   -0.5153   15.1742   -2.5336 H   0  0  0  0  0  0  0  0  0  0  0  0
   -3.7466   15.2179    2.4948 H   0  0  0  0  0  0  0  0  0  0  0  0
    0.2283   14.7866    0.2611 H   0  0  0  0  0  0  0  0  0  0  0  0
  1  3  1  0  0  0  0
  1  4  2  0  0  0  0
  2  3  2  0  0  0  0
  2 12  1  0  0  0  0
  3 11  1  0  0  0  0
  4  5  1  0  0  0  0
  4 13  1  0  0  0  0
  5 12  1  0  0  0  0
  5 14  2  0  0  0  0
  6  7  1  0  0  0  0
  6  8  1  0  0  0  0
  7  9  1  0  0  0  0
  8 10  1  0  0  0  0
  9 10  1  0  0  0  0
 10 13  1  0  0  0  0
 11 15  1  0  0  0  0
 11 16  1  0  0  0  0
 11 17  1  0  0  0  0
  1 18  1  0  0  0  0
  2 19  1  0  0  0  0
  6 20  1  0  0  0  0
  6 21  1  0  0  0  0
  7 22  1  0  0  0  0
  7 23  1  0  0  0  0
  8 24  1  0  0  0  0
  8 25  1  0  0  0  0
  9 26  1  0  0  0  0
  9 27  1  0  0  0  0
 10 28  1  0  0  0  0
 12 29  1  0  0  0  0
 13 30  1  0  0  0  0
M  END
> <HYBRID receptor title>
5S18(A) > WOY(A-201)

> <HYBRID receptor filename>
experiments/data/docking/5s18.oedu

> <HYBRID Chemgauss4 score>
-7.462916

> <HYBRID receptor title>
5S18(A) > WOY(A-201)

> <HYBRID receptor filename>
experiments/data/docking/5s18.oedu

> <Dock Type>
Hybrid

$$$$
MOL0401
  -OEChem-07032415493D

 32 32  0     1  0  0  0  0  0999 V2000
   -1.8868   14.8529   -1.2400 C   0  0  0  0  0  0  0  0  0  0  0  0
    0.4610   14.3606   -1.2869 C   0  0  0  0  0  0  0  0  0  0  0  0
   -0.6760   14.5415   -1.9726 C   0  0  0  0  0  0  0  0  0  0  0  0
   -1.9117   14.9673    0.0991 C   0  0  0  0  0  0  0  0  0  0  0  0
   -0.6240   14.7604    0.8517 C   0  0  0  0  0  0  0  0  0  0  0  0
   -6.9857   13.0077   -1.2223 C   0  0  0  0  0  0  0  0  0  0  0  0
   -5.7853   13.7553    1.4087 C   0  0  0  0  0  0  0  0  0  0  0  0
   -6.2036   14.2963   -1.0115 C   0  0  0  0  0  0  0  0  0  0  0  0
   -4.3185   15.4833    0.2895 C   0  0  0  0  0  0  0  0  0  0  0  0
   -5.1335   14.1964    0.0928 C   0  0  1  0  0  0  0  0  0  0  0  0
   -0.7659   14.4390   -3.4619 C   0  0  0  0  0  0  0  0  0  0  0  0
    0.4876   14.4662    0.0790 N   0  0  0  0  0  0  0  0  0  0  0  0
   -3.0125   15.2570    0.8442 N   0  0  0  0  0  0  0  0  0  0  0  0
   -0.5837   14.8519    2.0773 O   0  0  0  0  0  0  0  0  0  0  0  0
   -2.0261   14.6664   -3.8886 F   0  0  0  0  0  0  0  0  0  0  0  0
    0.0409   15.3380   -4.0638 F   0  0  0  0  0  0  0  0  0  0  0  0
   -0.4024   13.2105   -3.8868 F   0  0  0  0  0  0  0  0  0  0  0  0
   -2.7972   14.9951   -1.8161 H   0  0  0  0  0  0  0  0  0  0  0  0
    1.4075   14.1254   -1.7577 H   0  0  0  0  0  0  0  0  0  0  0  0
   -7.4467   12.6925   -0.2815 H   0  0  0  0  0  0  0  0  0  0  0  0
   -7.7878   13.1396   -1.9540 H   0  0  0  0  0  0  0  0  0  0  0  0
   -6.3302   12.2010   -1.5653 H   0  0  0  0  0  0  0  0  0  0  0  0
   -6.5070   14.5043    1.7520 H   0  0  0  0  0  0  0  0  0  0  0  0
   -5.0424   13.6182    2.2014 H   0  0  0  0  0  0  0  0  0  0  0  0
   -6.3241   12.8102    1.2790 H   0  0  0  0  0  0  0  0  0  0  0  0
   -5.7477   14.5998   -1.9614 H   0  0  0  0  0  0  0  0  0  0  0  0
   -6.9166   15.0865   -0.7438 H   0  0  0  0  0  0  0  0  0  0  0  0
   -4.8380   16.1808    0.9537 H   0  0  0  0  0  0  0  0  0  0  0  0
   -4.1763   15.9963   -0.6681 H   0  0  0  0  0  0  0  0  0  0  0  0
   -4.4254   13.4075   -0.1954 H   0  0  0  0  0  0  0  0  0  0  0  0
    1.3743   14.3202    0.5528 H   0  0  0  0  0  0  0  0  0  0  0  0
   -2.8982   15.3125    1.8492 H   0  0  0  0  0  0  0  0  0  0  0  0
  1  3  1  0  0  0  0
  1  4  2  0  0  0  0
  2  3  2  0  0  0  0
  2 12  1  0  0  0  0
  3 11  1  0  0  0  0
  4  5  1  0  0  0  0
  4 13  1  0  0  0  0
  5 12  1  0  0  0  0
  5 14  2  0  0  0  0
  6  8  1  0  0  0  0
  7 10  1  0  0  0  0
  8 10  1  0  0  0  0
  9 10  1  0  0  0  0
  9 13  1  0  0  0  0
 11 15  1  0  0  0  0
 11 16  1  0  0  0  0
 11 17  1  0  0  0  0
  1 18  1  0  0  0  0
  2 19  1  0  0  0  0
  6 20  1  0  0  0  0
  6 21  1  0  0  0  0
  6 22  1  0  0  0  0
  7 23  1  0  0  0  0
  7 24  1  0  0  0  0
  7 25  1  0  0  0  0
  8 26  1  0  0  0  0
  8 27  1  0  0  0  0
  9 28  1  0  0  0  0
  9 29  1  0  0  0  0
 10 30  1  0  0  0  0
 12 31  1  0  0  0  0
 13 32  1  0  0  0  0
M  END
> <HYBRID receptor title>
5S18(A) > WOY(A-201)

> <HYBRID receptor filename>
experiments/data/docking/5s18.oedu

> <HYBRID Chemgauss4 score>
-7.460592

> <HYBRID receptor title>
5S18(A) > WOY(A-201)

> <HYBRID receptor filename>
experiments/data/docking/5s18.oedu

> <Dock Type>
Hybrid

$$$$
MOL0119
  -OEChem-07032415493D

 27 28  0     0  0  0  0  0  0999 V2000
   -5.9727   13.5302   -1.2750 C   0  0  0  0  0  0  0  0  0  0  0  0
   -5.3646   13.7281   -0.0127 C   0  0  0  0  0  0  0  0  0  0  0  0
   -5.7926   14.7014   -1.9737 C   0  0  0  0  0  0  0  0  0  0  0  0
   -4.8561   15.0059   -0.0295 C   0  0  0  0  0  0  0  0  0  0  0  0
   -1.9704   14.8813   -0.8486 C   0  0  0  0  0  0  0  0  0  0  0  0
    0.3624   14.4238   -1.1731 C   0  0  0  0  0  0  0  0  0  0  0  0
   -0.8458   14.6112   -1.7215 C   0  0  0  0  0  0  0  0  0  0  0  0
   -1.8469   14.9511    0.4881 C   0  0  0  0  0  0  0  0  0  0  0  0
   -0.4812   14.7376    1.0853 C   0  0  0  0  0  0  0  0  0  0  0  0
   -4.1031   15.8250    0.9793 C   0  0  0  0  0  0  0  0  0  0  0  0
   -1.1003   14.5567   -3.1943 C   0  0  0  0  0  0  0  0  0  0  0  0
    0.5402   14.4847    0.1842 N   0  0  0  0  0  0  0  0  0  0  0  0
   -2.8626   15.2011    1.3622 N   0  0  0  0  0  0  0  0  0  0  0  0
   -0.3054   14.7892    2.3012 O   0  0  0  0  0  0  0  0  0  0  0  0
   -5.1132   15.6061   -1.2211 O   0  0  0  0  0  0  0  0  0  0  0  0
   -2.4025   14.7803   -3.4701 F   0  0  0  0  0  0  0  0  0  0  0  0
   -0.3750   15.4862   -3.8509 F   0  0  0  0  0  0  0  0  0  0  0  0
   -0.7739   13.3481   -3.6988 F   0  0  0  0  0  0  0  0  0  0  0  0
   -6.4785   12.6447   -1.6316 H   0  0  0  0  0  0  0  0  0  0  0  0
   -5.3054   13.0244    0.8055 H   0  0  0  0  0  0  0  0  0  0  0  0
   -6.0726   15.0325   -2.9630 H   0  0  0  0  0  0  0  0  0  0  0  0
   -2.9409   15.0296   -1.3146 H   0  0  0  0  0  0  0  0  0  0  0  0
    1.2528   14.2175   -1.7540 H   0  0  0  0  0  0  0  0  0  0  0  0
   -3.8720   16.8165    0.5761 H   0  0  0  0  0  0  0  0  0  0  0  0
   -4.6973   15.9733    1.8870 H   0  0  0  0  0  0  0  0  0  0  0  0
    1.4756   14.3356    0.5512 H   0  0  0  0  0  0  0  0  0  0  0  0
   -2.7341   14.9313    2.3233 H   0  0  0  0  0  0  0  0  0  0  0  0
  1  2  1  0  0  0  0
  1  3  2  0  0  0  0
  2  4  2  0  0  0  0
  3 15  1  0  0  0  0
  4 10  1  0  0  0  0
  4 15  1  0  0  0  0
  5  7  1  0  0  0  0
  5  8  2  0  0  0  0
  6  7  2  0  0  0  0
  6 12  1  0  0  0  0
  7 11  1  0  0  0  0
  8  9  1  0  0  0  0
  8 13  1  0  0  0  0
  9 12  1  0  0  0  0
  9 14  2  0  0  0  0
 10 13  1  0  0  0  0
 11 16  1  0  0  0  0
 11 17  1  0  0  0  0
 11 18  1  0  0  0  0
  1 19  1  0  0  0  0
  2 20  1  0  0  0  0
  3 21  1  0  0  0  0
  5 22  1  0  0  0  0
  6 23  1  0  0  0  0
 10 24  1  0  0  0  0
 10 25  1  0  0  0  0
 12 26  1  0  0  0  0
 13 27  1  0  0  0  0
M  END
> <HYBRID receptor title>
5S18(A) > WOY(A-201)

> <HYBRID receptor filename>
experiments/data/docking/5s18.oedu

> <HYBRID Chemgauss4 score>
-7.452888

> <HYBRID receptor title>
5S18(A) > WOY(A-201)

> <HYBRID receptor filename>
experiments/data/docking/5s18.oedu

> <Dock Type>
Hybrid

$$$$
MOL0296
  -OEChem-07032415493D

 29 29  0     0  0  0  0  0  0999 V2000
   -1.2406   14.8573   -1.8277 C   0  0  0  0  0  0  0  0  0  0  0  0
    1.0527   14.3517   -1.3357 C   0  0  0  0  0  0  0  0  0  0  0  0
    0.0957   14.5026   -2.2615 C   0  0  0  0  0  0  0  0  0  0  0  0
   -1.5552   15.0407   -0.5337 C   0  0  0  0  0  0  0  0  0  0  0  0
   -0.4661   14.8665    0.4915 C   0  0  0  0  0  0  0  0  0  0  0  0
   -3.9690   15.0087   -0.7556 C   0  0  0  0  0  0  0  0  0  0  0  0
   -6.9784   13.9658    1.4648 C   0  0  0  0  0  0  0  0  0  0  0  0
   -6.8278   13.8852   -0.0440 C   0  0  0  0  0  0  0  0  0  0  0  0
   -6.3312   15.1962   -0.6342 C   0  0  0  0  0  0  0  0  0  0  0  0
    0.3314   14.3240   -3.7276 C   0  0  0  0  0  0  0  0  0  0  0  0
    0.7824   14.5273   -0.0039 N   0  0  0  0  0  0  0  0  0  0  0  0
   -2.8046   15.3746   -0.1076 N   0  0  0  0  0  0  0  0  0  0  0  0
   -0.6965   15.0214    1.6894 O   0  0  0  0  0  0  0  0  0  0  0  0
   -4.0418   14.3446   -1.7850 O   0  0  0  0  0  0  0  0  0  0  0  0
   -5.0475   15.4999   -0.0747 O   0  0  0  0  0  0  0  0  0  0  0  0
   -0.8014   14.5354   -4.4303 F   0  0  0  0  0  0  0  0  0  0  0  0
    1.2646   15.1867   -4.1817 F   0  0  0  0  0  0  0  0  0  0  0  0
    0.7591   13.0734   -4.0016 F   0  0  0  0  0  0  0  0  0  0  0  0
   -1.9993   14.9739   -2.5972 H   0  0  0  0  0  0  0  0  0  0  0  0
    2.0753   14.0878   -1.5760 H   0  0  0  0  0  0  0  0  0  0  0  0
   -7.6677   14.7675    1.7478 H   0  0  0  0  0  0  0  0  0  0  0  0
   -7.3610   13.0242    1.8715 H   0  0  0  0  0  0  0  0  0  0  0  0
   -6.0106   14.1695    1.9325 H   0  0  0  0  0  0  0  0  0  0  0  0
   -6.1342   13.0772   -0.3063 H   0  0  0  0  0  0  0  0  0  0  0  0
   -7.7884   13.6166   -0.5000 H   0  0  0  0  0  0  0  0  0  0  0  0
   -6.2283   15.1209   -1.7217 H   0  0  0  0  0  0  0  0  0  0  0  0
   -7.0173   16.0163   -0.3977 H   0  0  0  0  0  0  0  0  0  0  0  0
    1.5486   14.3992    0.6506 H   0  0  0  0  0  0  0  0  0  0  0  0
   -2.8860   15.9286    0.7414 H   0  0  0  0  0  0  0  0  0  0  0  0
  1  3  1  0  0  0  0
  1  4  2  0  0  0  0
  2  3  2  0  0  0  0
  2 11  1  0  0  0  0
  3 10  1  0  0  0  0
  4  5  1  0  0  0  0
  4 12  1  0  0  0  0
  5 11  1  0  0  0  0
  5 13  2  0  0  0  0
  6 12  1  0  0  0  0
  6 14  2  0  0  0  0
  6 15  1  0  0  0  0
  7  8  1  0  0  0  0
  8  9  1  0  0  0  0
  9 15  1  0  0  0  0
 10 16  1  0  0  0  0
 10 17  1  0  0  0  0
 10 18  1  0  0  0  0
  1 19  1  0  0  0  0
  2 20  1  0  0  0  0
  7 21  1  0  0  0  0
  7 22  1  0  0  0  0
  7 23  1  0  0  0  0
  8 24  1  0  0  0  0
  8 25  1  0  0  0  0
  9 26  1  0  0  0  0
  9 27  1  0  0  0  0
 11 28  1  0  0  0  0
 12 29  1  0  0  0  0
M  END
> <HYBRID receptor title>
5S18(A) > WOY(A-201)

> <HYBRID receptor filename>
experiments/data/docking/5s18.oedu

> <HYBRID Chemgauss4 score>
-7.452098

> <HYBRID receptor title>
5S18(A) > WOY(A-201)

> <HYBRID receptor filename>
experiments/data/docking/5s18.oedu

> <Dock Type>
Hybrid

$$$$
MOL0274
  -OEChem-07032415493D

 30 31  0     1  0  0  0  0  0999 V2000
   -0.4481   15.1588   -2.5586 C   0  0  0  0  0  0  0  0  0  0  0  0
    0.0641   14.7683   -0.2133 C   0  0  0  0  0  0  0  0  0  0  0  0
   -0.8298   14.9034   -1.1977 C   0  0  0  0  0  0  0  0  0  0  0  0
    0.8599   15.2596   -2.8208 C   0  0  0  0  0  0  0  0  0  0  0  0
    1.9091   15.1190   -1.7751 C   0  0  0  0  0  0  0  0  0  0  0  0
   -3.1218   14.3232   -1.9252 C   0  0  0  0  0  0  0  0  0  0  0  0
   -2.7781   15.1766    0.3003 C   0  0  0  0  0  0  0  0  0  0  0  0
   -4.3835   14.0832   -1.1008 C   0  0  1  0  0  0  0  0  0  0  0  0
   -4.2727   15.1415    0.0057 C   0  0  1  0  0  0  0  0  0  0  0  0
   -5.6631   14.1988   -1.9135 C   0  0  0  0  0  0  0  0  0  0  0  0
    1.4091   14.8741   -0.4971 N   0  0  0  0  0  0  0  0  0  0  0  0
   -2.1530   14.8053   -0.9564 N   0  0  3  0  0  0  0  0  0  0  0  0
    1.3382   15.5015   -4.0811 N   0  0  0  0  0  0  0  0  0  0  0  0
    3.1068   15.2130   -2.0294 O   0  0  0  0  0  0  0  0  0  0  0  0
   -5.0189   14.7543    1.1434 O   0  0  0  0  0  0  0  0  0  0  0  0
   -1.2017   15.2635   -3.3315 H   0  0  0  0  0  0  0  0  0  0  0  0
   -0.1895   14.5759    0.8217 H   0  0  0  0  0  0  0  0  0  0  0  0
   -2.7909   13.3982   -2.4103 H   0  0  0  0  0  0  0  0  0  0  0  0
   -3.2812   15.0849   -2.6976 H   0  0  0  0  0  0  0  0  0  0  0  0
   -2.4736   16.1767    0.6289 H   0  0  0  0  0  0  0  0  0  0  0  0
   -2.5063   14.4649    1.0892 H   0  0  0  0  0  0  0  0  0  0  0  0
   -4.3492   13.0811   -0.6513 H   0  0  0  0  0  0  0  0  0  0  0  0
   -4.6220   16.1215   -0.3413 H   0  0  0  0  0  0  0  0  0  0  0  0
   -5.7276   15.1854   -2.3744 H   0  0  0  0  0  0  0  0  0  0  0  0
   -6.5316   14.0541   -1.2695 H   0  0  0  0  0  0  0  0  0  0  0  0
   -5.6790   13.4418   -2.6999 H   0  0  0  0  0  0  0  0  0  0  0  0
    2.0712   14.7681    0.2659 H   0  0  0  0  0  0  0  0  0  0  0  0
    0.6840   15.6048   -4.8227 H   0  0  0  0  0  0  0  0  0  0  0  0
    2.3217   15.5651   -4.2087 H   0  0  0  0  0  0  0  0  0  0  0  0
   -4.8383   15.4084    1.8400 H   0  0  0  0  0  0  0  0  0  0  0  0
  1  3  1  0  0  0  0
  1  4  2  0  0  0  0
  2  3  2  0  0  0  0
  2 11  1  0  0  0  0
  3 12  1  0  0  0  0
  4  5  1  0  0  0  0
  4 13  1  0  0  0  0
  5 11  1  0  0  0  0
  5 14  2  0  0  0  0
  6  8  1  0  0  0  0
  6 12  1  0  0  0  0
  7  9  1  0  0  0  0
  7 12  1  0  0  0  0
  8  9  1  0  0  0  0
  8 10  1  0  0  0  0
  9 15  1  0  0  0  0
  1 16  1  0  0  0  0
  2 17  1  0  0  0  0
  6 18  1  0  0  0  0
  6 19  1  0  0  0  0
  7 20  1  0  0  0  0
  7 21  1  0  0  0  0
  8 22  1  0  0  0  0
  9 23  1  0  0  0  0
 10 24  1  0  0  0  0
 10 25  1  0  0  0  0
 10 26  1  0  0  0  0
 11 27  1  0  0  0  0
 13 28  1  0  0  0  0
 13 29  1  0  0  0  0
 15 30  1  0  0  0  0
M  END
> <HYBRID receptor title>
5S18(A) > WOY(A-201)

> <HYBRID receptor filename>
experiments/data/docking/5s18.oedu

> <HYBRID Chemgauss4 score>
-7.445059

> <HYBRID receptor title>
5S18(A) > WOY(A-201)

> <HYBRID receptor filename>
experiments/data/docking/5s18.oedu

> <Dock Type>
Hybrid

$$$$
MOL0148
  -OEChem-07032415493D

 29 29  0     1  0  0  0  0  0999 V2000
   -2.7875   14.7417   -1.0960 C   0  0  0  0  0  0  0  0  0  0  0  0
   -4.2844   14.9061    0.7718 C   0  0  0  0  0  0  0  0  0  0  0  0
   -4.1306   14.7853   -0.5539 C   0  0  0  0  0  0  0  0  0  0  0  0
   -1.6924   14.8174   -0.3201 C   0  0  0  0  0  0  0  0  0  0  0  0
   -1.8861   14.9529    1.1670 C   0  0  0  0  0  0  0  0  0  0  0  0
    2.4243   14.3263   -1.6668 C   0  0  0  0  0  0  0  0  0  0  0  0
   -0.2166   13.2068   -2.6023 C   0  0  0  0  0  0  0  0  0  0  0  0
    1.3799   15.1459   -2.4134 C   0  0  0  0  0  0  0  0  0  0  0  0
   -0.0512   14.6561   -2.1574 C   0  0  2  0  0  0  0  0  0  0  0  0
   -5.2753   14.6925   -1.5118 C   0  0  0  0  0  0  0  0  0  0  0  0
   -3.1998   14.9873    1.6053 N   0  0  0  0  0  0  0  0  0  0  0  0
   -0.4050   14.7821   -0.7668 N   0  0  0  0  0  0  0  0  0  0  0  0
   -0.9230   15.0267    1.9281 O   0  0  0  0  0  0  0  0  0  0  0  0
   -4.8360   14.5782   -2.7829 F   0  0  0  0  0  0  0  0  0  0  0  0
   -6.0500   13.6200   -1.2460 F   0  0  0  0  0  0  0  0  0  0  0  0
   -6.0561   15.7914   -1.4429 F   0  0  0  0  0  0  0  0  0  0  0  0
   -2.6860   14.6438   -2.1735 H   0  0  0  0  0  0  0  0  0  0  0  0
   -5.2522   14.9462    1.2562 H   0  0  0  0  0  0  0  0  0  0  0  0
    2.3622   13.2659   -1.9288 H   0  0  0  0  0  0  0  0  0  0  0  0
    2.2697   14.4137   -0.5867 H   0  0  0  0  0  0  0  0  0  0  0  0
    3.4348   14.6795   -1.8937 H   0  0  0  0  0  0  0  0  0  0  0  0
    0.4762   12.5537   -2.0611 H   0  0  0  0  0  0  0  0  0  0  0  0
   -0.0161   13.1001   -3.6729 H   0  0  0  0  0  0  0  0  0  0  0  0
   -1.2321   12.8439   -2.4058 H   0  0  0  0  0  0  0  0  0  0  0  0
    1.4788   16.1983   -2.1210 H   0  0  0  0  0  0  0  0  0  0  0  0
    1.5992   15.0881   -3.4864 H   0  0  0  0  0  0  0  0  0  0  0  0
   -0.7579   15.2801   -2.7177 H   0  0  0  0  0  0  0  0  0  0  0  0
   -3.3690   15.0779    2.6028 H   0  0  0  0  0  0  0  0  0  0  0  0
    0.3322   14.8505   -0.0850 H   0  0  0  0  0  0  0  0  0  0  0  0
  1  3  1  0  0  0  0
  1  4  2  0  0  0  0
  2  3  2  0  0  0  0
  2 11  1  0  0  0  0
  3 10  1  0  0  0  0
  4  5  1  0  0  0  0
  4 12  1  0  0  0  0
  5 11  1  0  0  0  0
  5 13  2  0  0  0  0
  6  8  1  0  0  0  0
  7  9  1  0  0  0  0
  8  9  1  0  0  0  0
  9 12  1  0  0  0  0
 10 14  1  0  0  0  0
 10 15  1  0  0  0  0
 10 16  1  0  0  0  0
  1 17  1  0  0  0  0
  2 18  1  0  0  0  0
  6 19  1  0  0  0  0
  6 20  1  0  0  0  0
  6 21  1  0  0  0  0
  7 22  1  0  0  0  0
  7 23  1  0  0  0  0
  7 24  1  0  0  0  0
  8 25  1  0  0  0  0
  8 26  1  0  0  0  0
  9 27  1  0  0  0  0
 11 28  1  0  0  0  0
 12 29  1  0  0  0  0
M  END
> <HYBRID receptor title>
5S18(A) > WOY(A-201)

> <HYBRID receptor filename>
experiments/data/docking/5s18.oedu

> <HYBRID Chemgauss4 score>
-7.442553

> <HYBRID receptor title>
5S18(A) > WOY(A-201)

> <HYBRID receptor filename>
experiments/data/docking/5s18.oedu

> <Dock Type>
Hybrid

$$$$
MOL0067
  -OEChem-07032415493D

 25 26  0     0  0  0  0  0  0999 V2000
   -6.8441   15.3512    0.4100 C   0  0  0  0  0  0  0  0  0  0  0  0
   -6.7265   14.1711    1.1854 C   0  0  0  0  0  0  0  0  0  0  0  0
   -5.5795   15.6885   -0.0201 C   0  0  0  0  0  0  0  0  0  0  0  0
   -5.3939   13.8231    1.2053 C   0  0  0  0  0  0  0  0  0  0  0  0
   -1.3435   14.6712   -1.0749 C   0  0  0  0  0  0  0  0  0  0  0  0
   -2.7934   14.6718   -0.9708 C   0  0  0  0  0  0  0  0  0  0  0  0
   -0.5318   14.7436   -0.0072 C   0  0  0  0  0  0  0  0  0  0  0  0
   -3.3484   14.7460    0.2554 C   0  0  0  0  0  0  0  0  0  0  0  0
   -1.1645   14.8279    1.3514 C   0  0  0  0  0  0  0  0  0  0  0  0
   -3.5448   14.5851   -2.2680 C   0  0  0  0  0  0  0  0  0  0  0  0
   -4.7063   14.7523    0.4695 N   0  0  0  0  0  0  0  0  0  0  0  0
   -2.5478   14.8220    1.3760 N   0  0  0  0  0  0  0  0  0  0  0  0
    0.8306   14.7478   -0.0495 N   0  0  0  0  0  0  0  0  0  0  0  0
   -0.4769   14.8969    2.3685 O   0  0  0  0  0  0  0  0  0  0  0  0
   -2.6939   14.5216   -3.3110 F   0  0  0  0  0  0  0  0  0  0  0  0
   -4.3270   13.4886   -2.3010 F   0  0  0  0  0  0  0  0  0  0  0  0
   -4.3334   15.6646   -2.4382 F   0  0  0  0  0  0  0  0  0  0  0  0
   -7.7510   15.8963    0.1883 H   0  0  0  0  0  0  0  0  0  0  0  0
   -7.5253   13.6338    1.6770 H   0  0  0  0  0  0  0  0  0  0  0  0
   -5.2371   16.5146   -0.6301 H   0  0  0  0  0  0  0  0  0  0  0  0
   -4.8874   12.9942    1.6824 H   0  0  0  0  0  0  0  0  0  0  0  0
   -0.9173   14.6088   -2.0731 H   0  0  0  0  0  0  0  0  0  0  0  0
   -3.0054   14.8776    2.2820 H   0  0  0  0  0  0  0  0  0  0  0  0
    1.2821   14.6934   -0.9371 H   0  0  0  0  0  0  0  0  0  0  0  0
    1.3359   14.8052    0.8080 H   0  0  0  0  0  0  0  0  0  0  0  0
  1  2  1  0  0  0  0
  1  3  2  0  0  0  0
  2  4  2  0  0  0  0
  3 11  1  0  0  0  0
  4 11  1  0  0  0  0
  5  6  1  0  0  0  0
  5  7  2  0  0  0  0
  6  8  2  0  0  0  0
  6 10  1  0  0  0  0
  7  9  1  0  0  0  0
  7 13  1  0  0  0  0
  8 11  1  0  0  0  0
  8 12  1  0  0  0  0
  9 12  1  0  0  0  0
  9 14  2  0  0  0  0
 10 15  1  0  0  0  0
 10 16  1  0  0  0  0
 10 17  1  0  0  0  0
  1 18  1  0  0  0  0
  2 19  1  0  0  0  0
  3 20  1  0  0  0  0
  4 21  1  0  0  0  0
  5 22  1  0  0  0  0
 12 23  1  0  0  0  0
 13 24  1  0  0  0  0
 13 25  1  0  0  0  0
M  END
> <HYBRID receptor title>
5S18(A) > WOY(A-201)

> <HYBRID receptor filename>
experiments/data/docking/5s18.oedu

> <HYBRID Chemgauss4 score>
-7.441226

> <HYBRID receptor title>
5S18(A) > WOY(A-201)

> <HYBRID receptor filename>
experiments/data/docking/5s18.oedu

> <Dock Type>
Hybrid

$$$$
MOL0127
  -OEChem-07032415493D

 29 29  0     1  0  0  0  0  0999 V2000
   -2.7056   14.7783   -1.2024 C   0  0  0  0  0  0  0  0  0  0  0  0
   -4.2918   15.1114    0.5666 C   0  0  0  0  0  0  0  0  0  0  0  0
   -4.0697   14.9509   -0.7451 C   0  0  0  0  0  0  0  0  0  0  0  0
   -1.6569   14.7728   -0.3614 C   0  0  0  0  0  0  0  0  0  0  0  0
   -1.9270   14.9548    1.1087 C   0  0  0  0  0  0  0  0  0  0  0  0
   -5.0825   13.6380   -2.5669 C   0  0  0  0  0  0  0  0  0  0  0  0
   -7.6073   15.6881   -2.1286 C   0  0  0  0  0  0  0  0  0  0  0  0
   -7.0677   13.9187   -0.4371 C   0  0  0  0  0  0  0  0  0  0  0  0
   -5.1625   14.9399   -1.7745 C   0  0  1  0  0  0  0  0  0  0  0  0
   -6.5527   15.1784   -1.1419 C   0  0  0  0  0  0  0  0  0  0  0  0
   -3.2565   15.1136    1.4643 N   0  0  0  0  0  0  0  0  0  0  0  0
   -0.3532   14.6153   -0.7271 N   0  0  0  0  0  0  0  0  0  0  0  0
   -1.0089   14.9588    1.9267 O   0  0  0  0  0  0  0  0  0  0  0  0
   -2.5485   14.6501   -2.2700 H   0  0  0  0  0  0  0  0  0  0  0  0
   -5.2797   15.2464    0.9895 H   0  0  0  0  0  0  0  0  0  0  0  0
   -5.2866   12.7751   -1.9247 H   0  0  0  0  0  0  0  0  0  0  0  0
   -5.8215   13.6372   -3.3762 H   0  0  0  0  0  0  0  0  0  0  0  0
   -4.1012   13.4981   -3.0336 H   0  0  0  0  0  0  0  0  0  0  0  0
   -7.7861   14.9715   -2.9369 H   0  0  0  0  0  0  0  0  0  0  0  0
   -8.5620   15.8543   -1.6167 H   0  0  0  0  0  0  0  0  0  0  0  0
   -7.3106   16.6422   -2.5747 H   0  0  0  0  0  0  0  0  0  0  0  0
   -7.2094   13.1050   -1.1573 H   0  0  0  0  0  0  0  0  0  0  0  0
   -6.3686   13.5677    0.3291 H   0  0  0  0  0  0  0  0  0  0  0  0
   -8.0335   14.1078    0.0430 H   0  0  0  0  0  0  0  0  0  0  0  0
   -4.9506   15.7671   -2.4644 H   0  0  0  0  0  0  0  0  0  0  0  0
   -6.4331   15.9492   -0.3686 H   0  0  0  0  0  0  0  0  0  0  0  0
   -3.4768   15.2389    2.4480 H   0  0  0  0  0  0  0  0  0  0  0  0
   -0.1387   14.4927   -1.6933 H   0  0  0  0  0  0  0  0  0  0  0  0
    0.3475   14.6275   -0.0182 H   0  0  0  0  0  0  0  0  0  0  0  0
  1  3  1  0  0  0  0
  1  4  2  0  0  0  0
  2  3  2  0  0  0  0
  2 11  1  0  0  0  0
  3  9  1  0  0  0  0
  4  5  1  0  0  0  0
  4 12  1  0  0  0  0
  5 11  1  0  0  0  0
  5 13  2  0  0  0  0
  6  9  1  0  0  0  0
  7 10  1  0  0  0  0
  8 10  1  0  0  0  0
  9 10  1  0  0  0  0
  1 14  1  0  0  0  0
  2 15  1  0  0  0  0
  6 16  1  0  0  0  0
  6 17  1  0  0  0  0
  6 18  1  0  0  0  0
  7 19  1  0  0  0  0
  7 20  1  0  0  0  0
  7 21  1  0  0  0  0
  8 22  1  0  0  0  0
  8 23  1  0  0  0  0
  8 24  1  0  0  0  0
  9 25  1  0  0  0  0
 10 26  1  0  0  0  0
 11 27  1  0  0  0  0
 12 28  1  0  0  0  0
 12 29  1  0  0  0  0
M  END
> <HYBRID receptor title>
5S18(A) > WOY(A-201)

> <HYBRID receptor filename>
experiments/data/docking/5s18.oedu

> <HYBRID Chemgauss4 score>
-7.429638

> <HYBRID receptor title>
5S18(A) > WOY(A-201)

> <HYBRID receptor filename>
experiments/data/docking/5s18.oedu

> <Dock Type>
Hybrid

$$$$
MOL0393
  -OEChem-07032415493D

 23 23  0     0  0  0  0  0  0999 V2000
   -3.1618   14.9814   -1.1438 C   0  0  0  0  0  0  0  0  0  0  0  0
   -4.5261   14.7651   -0.6892 C   0  0  0  0  0  0  0  0  0  0  0  0
   -2.1098   15.0388   -0.3123 C   0  0  0  0  0  0  0  0  0  0  0  0
   -4.7530   14.6064    0.6308 C   0  0  0  0  0  0  0  0  0  0  0  0
   -2.3713   14.8687    1.1543 C   0  0  0  0  0  0  0  0  0  0  0  0
   -6.0831   14.3558    1.2794 C   0  0  0  0  0  0  0  0  0  0  0  0
    0.3115   14.7046    0.0360 C   0  0  0  0  0  0  0  0  0  0  0  0
   -5.5599   14.7562   -1.7783 C   0  0  0  0  0  0  0  0  0  0  0  0
   -3.6909   14.6610    1.5131 N   0  0  0  0  0  0  0  0  0  0  0  0
   -0.8147   15.2392   -0.6860 N   0  0  0  0  0  0  0  0  0  0  0  0
   -1.4537   14.9136    1.9720 O   0  0  0  0  0  0  0  0  0  0  0  0
   -4.9889   14.9564   -2.9824 F   0  0  0  0  0  0  0  0  0  0  0  0
   -6.2111   13.5773   -1.8168 F   0  0  0  0  0  0  0  0  0  0  0  0
   -6.4713   15.7293   -1.5819 F   0  0  0  0  0  0  0  0  0  0  0  0
   -3.0067   15.0995   -2.2135 H   0  0  0  0  0  0  0  0  0  0  0  0
   -6.2605   13.2846    1.3388 H   0  0  0  0  0  0  0  0  0  0  0  0
   -6.8682   14.8237    0.6902 H   0  0  0  0  0  0  0  0  0  0  0  0
   -6.0841   14.7825    2.2797 H   0  0  0  0  0  0  0  0  0  0  0  0
   -0.0255   14.1331    0.9056 H   0  0  0  0  0  0  0  0  0  0  0  0
    0.8972   14.0459   -0.6114 H   0  0  0  0  0  0  0  0  0  0  0  0
    0.9598   15.5158    0.3787 H   0  0  0  0  0  0  0  0  0  0  0  0
   -3.8978   14.5390    2.5008 H   0  0  0  0  0  0  0  0  0  0  0  0
   -0.6420   15.7882   -1.5119 H   0  0  0  0  0  0  0  0  0  0  0  0
  1  2  1  0  0  0  0
  1  3  2  0  0  0  0
  2  4  2  0  0  0  0
  2  8  1  0  0  0  0
  3  5  1  0  0  0  0
  3 10  1  0  0  0  0
  4  6  1  0  0  0  0
  4  9  1  0  0  0  0
  5  9  1  0  0  0  0
  5 11  2  0  0  0  0
  7 10  1  0  0  0  0
  8 12  1  0  0  0  0
  8 13  1  0  0  0  0
  8 14  1  0  0  0  0
  1 15  1  0  0  0  0
  6 16  1  0  0  0  0
  6 17  1  0  0  0  0
  6 18  1  0  0  0  0
  7 19  1  0  0  0  0
  7 20  1  0  0  0  0
  7 21  1  0  0  0  0
  9 22  1  0  0  0  0
 10 23  1  0  0  0  0
M  END
> <HYBRID receptor title>
5S18(A) > WOY(A-201)

> <HYBRID receptor filename>
experiments/data/docking/5s18.oedu

> <HYBRID Chemgauss4 score>
-7.384194

> <HYBRID receptor title>
5S18(A) > WOY(A-201)

> <HYBRID receptor filename>
experiments/data/docking/5s18.oedu

> <Dock Type>
Hybrid

$$$$
MOL0391
  -OEChem-07032415493D

 33 34  0     0  0  0  0  0  0999 V2000
   -4.3829   14.5659   -1.4966 C   0  0  0  0  0  0  0  0  0  0  0  0
   -2.9757   15.0824    0.3768 C   0  0  0  0  0  0  0  0  0  0  0  0
   -3.1217   15.0296   -0.9542 C   0  0  0  0  0  0  0  0  0  0  0  0
   -5.4097   14.1878   -0.7158 C   0  0  0  0  0  0  0  0  0  0  0  0
   -5.2260   14.2541    0.7772 C   0  0  0  0  0  0  0  0  0  0  0  0
    1.6785   15.1424   -2.4235 C   0  0  0  0  0  0  0  0  0  0  0  0
    0.6883   15.4873   -3.5323 C   0  0  0  0  0  0  0  0  0  0  0  0
    0.9831   14.9542   -1.0791 C   0  0  0  0  0  0  0  0  0  0  0  0
   -0.4410   14.4613   -3.6193 C   0  0  0  0  0  0  0  0  0  0  0  0
   -0.1453   13.9281   -1.1655 C   0  0  0  0  0  0  0  0  0  0  0  0
   -1.1567   14.2381   -2.2787 C   0  0  0  0  0  0  0  0  0  0  0  0
   -2.0542   15.4231   -1.9128 C   0  0  0  0  0  0  0  0  0  0  0  0
   -3.9925   14.7076    1.2154 N   0  0  0  0  0  0  0  0  0  0  0  0
   -6.6184   13.7434   -1.1625 N   0  0  0  0  0  0  0  0  0  0  0  0
   -6.1289   13.9216    1.5429 O   0  0  0  0  0  0  0  0  0  0  0  0
   -4.4793   14.5308   -2.5784 H   0  0  0  0  0  0  0  0  0  0  0  0
   -2.0668   15.4165    0.8618 H   0  0  0  0  0  0  0  0  0  0  0  0
    2.2237   14.2281   -2.6879 H   0  0  0  0  0  0  0  0  0  0  0  0
    2.4246   15.9435   -2.3392 H   0  0  0  0  0  0  0  0  0  0  0  0
    0.2675   16.4833   -3.3539 H   0  0  0  0  0  0  0  0  0  0  0  0
    1.2161   15.5306   -4.4929 H   0  0  0  0  0  0  0  0  0  0  0  0
    1.7162   14.6272   -0.3313 H   0  0  0  0  0  0  0  0  0  0  0  0
    0.5820   15.9139   -0.7340 H   0  0  0  0  0  0  0  0  0  0  0  0
   -1.1693   14.7925   -4.3795 H   0  0  0  0  0  0  0  0  0  0  0  0
   -0.0318   13.5058   -3.9872 H   0  0  0  0  0  0  0  0  0  0  0  0
    0.2892   12.9272   -1.3244 H   0  0  0  0  0  0  0  0  0  0  0  0
   -0.6648   13.8828   -0.1927 H   0  0  0  0  0  0  0  0  0  0  0  0
   -1.8127   13.3490   -2.3930 H   0  0  0  0  0  0  0  0  0  0  0  0
   -1.4447   16.2153   -1.4736 H   0  0  0  0  0  0  0  0  0  0  0  0
   -2.5106   15.8161   -2.8246 H   0  0  0  0  0  0  0  0  0  0  0  0
   -3.8325   14.7657    2.2168 H   0  0  0  0  0  0  0  0  0  0  0  0
   -6.7738   13.6867   -2.1460 H   0  0  0  0  0  0  0  0  0  0  0  0
   -7.3117   13.4880   -0.4932 H   0  0  0  0  0  0  0  0  0  0  0  0
  1  3  1  0  0  0  0
  1  4  2  0  0  0  0
  2  3  2  0  0  0  0
  2 13  1  0  0  0  0
  3 12  1  0  0  0  0
  4  5  1  0  0  0  0
  4 14  1  0  0  0  0
  5 13  1  0  0  0  0
  5 15  2  0  0  0  0
  6  7  1  0  0  0  0
  6  8  1  0  0  0  0
  7  9  1  0  0  0  0
  8 10  1  0  0  0  0
  9 11  1  0  0  0  0
 10 11  1  0  0  0  0
 11 12  1  0  0  0  0
  1 16  1  0  0  0  0
  2 17  1  0  0  0  0
  6 18  1  0  0  0  0
  6 19  1  0  0  0  0
  7 20  1  0  0  0  0
  7 21  1  0  0  0  0
  8 22  1  0  0  0  0
  8 23  1  0  0  0  0
  9 24  1  0  0  0  0
  9 25  1  0  0  0  0
 10 26  1  0  0  0  0
 10 27  1  0  0  0  0
 11 28  1  0  0  0  0
 12 29  1  0  0  0  0
 12 30  1  0  0  0  0
 13 31  1  0  0  0  0
 14 32  1  0  0  0  0
 14 33  1  0  0  0  0
M  END
> <HYBRID receptor title>
5S18(A) > WOY(A-201)

> <HYBRID receptor filename>
experiments/data/docking/5s18.oedu

> <HYBRID Chemgauss4 score>
-7.381224

> <HYBRID receptor title>
5S18(A) > WOY(A-201)

> <HYBRID receptor filename>
experiments/data/docking/5s18.oedu

> <Dock Type>
Hybrid

$$$$
MOL0050
  -OEChem-07032415493D

 23 23  0     0  0  0  0  0  0999 V2000
   -4.2037   15.4247    0.6113 C   0  0  0  0  0  0  0  0  0  0  0  0
   -3.9204   15.2852   -0.6918 C   0  0  0  0  0  0  0  0  0  0  0  0
   -2.5648   14.8795   -1.0883 C   0  0  0  0  0  0  0  0  0  0  0  0
   -1.6105   14.6489   -0.1545 C   0  0  0  0  0  0  0  0  0  0  0  0
   -1.9664   14.8163    1.3036 C   0  0  0  0  0  0  0  0  0  0  0  0
   -5.5309   14.2477   -2.2914 C   0  0  0  0  0  0  0  0  0  0  0  0
   -4.9754   15.5405   -1.7305 C   0  0  0  0  0  0  0  0  0  0  0  0
   -2.3053   14.7385   -2.5689 C   0  0  0  0  0  0  0  0  0  0  0  0
   -3.2631   15.1990    1.5748 N   0  0  0  0  0  0  0  0  0  0  0  0
   -0.3160   14.2688   -0.3733 N   0  0  0  0  0  0  0  0  0  0  0  0
   -1.1331   14.6176    2.1868 O   0  0  0  0  0  0  0  0  0  0  0  0
   -3.4160   15.0245   -3.2709 F   0  0  0  0  0  0  0  0  0  0  0  0
   -1.3290   15.5751   -2.9619 F   0  0  0  0  0  0  0  0  0  0  0  0
   -1.9296   13.4814   -2.8637 F   0  0  0  0  0  0  0  0  0  0  0  0
   -5.1796   15.7202    0.9776 H   0  0  0  0  0  0  0  0  0  0  0  0
   -5.9688   13.6512   -1.4844 H   0  0  0  0  0  0  0  0  0  0  0  0
   -6.3136   14.4370   -3.0344 H   0  0  0  0  0  0  0  0  0  0  0  0
   -4.7468   13.6485   -2.7671 H   0  0  0  0  0  0  0  0  0  0  0  0
   -4.5370   16.1409   -2.5290 H   0  0  0  0  0  0  0  0  0  0  0  0
   -5.7788   16.1213   -1.2729 H   0  0  0  0  0  0  0  0  0  0  0  0
   -3.5432   15.3226    2.5434 H   0  0  0  0  0  0  0  0  0  0  0  0
   -0.0112   14.1393   -1.3121 H   0  0  0  0  0  0  0  0  0  0  0  0
    0.2788   14.1343    0.4132 H   0  0  0  0  0  0  0  0  0  0  0  0
  1  2  2  0  0  0  0
  1  9  1  0  0  0  0
  2  3  1  0  0  0  0
  2  7  1  0  0  0  0
  3  4  2  0  0  0  0
  3  8  1  0  0  0  0
  4  5  1  0  0  0  0
  4 10  1  0  0  0  0
  5  9  1  0  0  0  0
  5 11  2  0  0  0  0
  6  7  1  0  0  0  0
  8 12  1  0  0  0  0
  8 13  1  0  0  0  0
  8 14  1  0  0  0  0
  1 15  1  0  0  0  0
  6 16  1  0  0  0  0
  6 17  1  0  0  0  0
  6 18  1  0  0  0  0
  7 19  1  0  0  0  0
  7 20  1  0  0  0  0
  9 21  1  0  0  0  0
 10 22  1  0  0  0  0
 10 23  1  0  0  0  0
M  END
> <HYBRID receptor title>
5S18(A) > WOY(A-201)

> <HYBRID receptor filename>
experiments/data/docking/5s18.oedu

> <HYBRID Chemgauss4 score>
-7.362585

> <HYBRID receptor title>
5S18(A) > WOY(A-201)

> <HYBRID receptor filename>
experiments/data/docking/5s18.oedu

> <Dock Type>
Hybrid

$$$$
MOL0040
  -OEChem-07032415493D

 20 20  0     0  0  0  0  0  0999 V2000
   -4.4381   14.9302    0.5426 C   0  0  0  0  0  0  0  0  0  0  0  0
   -4.0748   14.7289   -0.7323 C   0  0  0  0  0  0  0  0  0  0  0  0
   -2.6554   14.5123   -1.0445 C   0  0  0  0  0  0  0  0  0  0  0  0
   -1.7224   14.5154   -0.0621 C   0  0  0  0  0  0  0  0  0  0  0  0
   -2.1689   14.7457    1.3622 C   0  0  0  0  0  0  0  0  0  0  0  0
   -5.1060   14.7252   -1.8249 C   0  0  0  0  0  0  0  0  0  0  0  0
   -2.3069   14.2908   -2.4968 C   0  0  0  0  0  0  0  0  0  0  0  0
   -3.5208   14.9386    1.5537 N   0  0  0  0  0  0  0  0  0  0  0  0
   -0.3756   14.3292   -0.2017 N   0  0  0  0  0  0  0  0  0  0  0  0
   -1.3578   14.7569    2.2873 O   0  0  0  0  0  0  0  0  0  0  0  0
   -3.4139   14.3366   -3.2588 F   0  0  0  0  0  0  0  0  0  0  0  0
   -1.4550   15.2361   -2.9304 F   0  0  0  0  0  0  0  0  0  0  0  0
   -1.7267   13.0893   -2.6641 F   0  0  0  0  0  0  0  0  0  0  0  0
   -5.4644   15.0963    0.8475 H   0  0  0  0  0  0  0  0  0  0  0  0
   -5.2263   15.7343   -2.2102 H   0  0  0  0  0  0  0  0  0  0  0  0
   -6.0531   14.3698   -1.4271 H   0  0  0  0  0  0  0  0  0  0  0  0
   -4.7818   14.0637   -2.6242 H   0  0  0  0  0  0  0  0  0  0  0  0
   -3.8625   15.0967    2.4972 H   0  0  0  0  0  0  0  0  0  0  0  0
   -0.0100   14.1717   -1.1143 H   0  0  0  0  0  0  0  0  0  0  0  0
    0.1948   14.3575    0.6132 H   0  0  0  0  0  0  0  0  0  0  0  0
  1  2  2  0  0  0  0
  1  8  1  0  0  0  0
  2  3  1  0  0  0  0
  2  6  1  0  0  0  0
  3  4  2  0  0  0  0
  3  7  1  0  0  0  0
  4  5  1  0  0  0  0
  4  9  1  0  0  0  0
  5  8  1  0  0  0  0
  5 10  2  0  0  0  0
  7 11  1  0  0  0  0
  7 12  1  0  0  0  0
  7 13  1  0  0  0  0
  1 14  1  0  0  0  0
  6 15  1  0  0  0  0
  6 16  1  0  0  0  0
  6 17  1  0  0  0  0
  8 18  1  0  0  0  0
  9 19  1  0  0  0  0
  9 20  1  0  0  0  0
M  END
> <HYBRID receptor title>
5S18(A) > WOY(A-201)

> <HYBRID receptor filename>
experiments/data/docking/5s18.oedu

> <HYBRID Chemgauss4 score>
-7.348620

> <HYBRID receptor title>
5S18(A) > WOY(A-201)

> <HYBRID receptor filename>
experiments/data/docking/5s18.oedu

> <Dock Type>
Hybrid

$$$$
MOL0290
  -OEChem-07032415493D

 27 28  0     0  0  0  0  0  0999 V2000
   -2.9778   14.9178   -1.1024 C   0  0  0  0  0  0  0  0  0  0  0  0
   -4.4979   14.9232    0.7540 C   0  0  0  0  0  0  0  0  0  0  0  0
   -4.3266   14.8776   -0.5743 C   0  0  0  0  0  0  0  0  0  0  0  0
   -1.8942   14.9987   -0.3110 C   0  0  0  0  0  0  0  0  0  0  0  0
   -2.1074   15.0491    1.1788 C   0  0  0  0  0  0  0  0  0  0  0  0
    0.9165   13.3443   -1.8817 C   0  0  0  0  0  0  0  0  0  0  0  0
   -0.4955   12.9586   -2.2044 C   0  0  0  0  0  0  0  0  0  0  0  0
   -0.1530   14.4125   -1.9602 C   0  0  0  0  0  0  0  0  0  0  0  0
   -0.1319   15.3307   -3.1512 C   0  0  0  0  0  0  0  0  0  0  0  0
   -5.4573   14.7869   -1.5489 C   0  0  0  0  0  0  0  0  0  0  0  0
   -3.4255   15.0062    1.6030 N   0  0  0  0  0  0  0  0  0  0  0  0
   -0.6024   15.0400   -0.7441 N   0  0  0  0  0  0  0  0  0  0  0  0
   -1.1556   15.1234    1.9537 O   0  0  0  0  0  0  0  0  0  0  0  0
   -5.0017   14.7566   -2.8190 F   0  0  0  0  0  0  0  0  0  0  0  0
   -6.1887   13.6708   -1.3473 F   0  0  0  0  0  0  0  0  0  0  0  0
   -6.2843   15.8473   -1.4329 F   0  0  0  0  0  0  0  0  0  0  0  0
   -2.8622   14.8800   -2.1822 H   0  0  0  0  0  0  0  0  0  0  0  0
   -5.4710   14.8981    1.2285 H   0  0  0  0  0  0  0  0  0  0  0  0
    1.3012   13.0726   -0.9057 H   0  0  0  0  0  0  0  0  0  0  0  0
    1.6499   13.2839   -2.6769 H   0  0  0  0  0  0  0  0  0  0  0  0
   -0.7118   12.6387   -3.2167 H   0  0  0  0  0  0  0  0  0  0  0  0
   -1.0574   12.4280   -1.4447 H   0  0  0  0  0  0  0  0  0  0  0  0
   -0.9497   16.0595   -3.0995 H   0  0  0  0  0  0  0  0  0  0  0  0
   -0.2415   14.7653   -4.0845 H   0  0  0  0  0  0  0  0  0  0  0  0
    0.8132   15.8864   -3.2021 H   0  0  0  0  0  0  0  0  0  0  0  0
   -3.6077   15.0381    2.6018 H   0  0  0  0  0  0  0  0  0  0  0  0
    0.0672   15.5385   -0.1817 H   0  0  0  0  0  0  0  0  0  0  0  0
  1  3  1  0  0  0  0
  1  4  2  0  0  0  0
  2  3  2  0  0  0  0
  2 11  1  0  0  0  0
  3 10  1  0  0  0  0
  4  5  1  0  0  0  0
  4 12  1  0  0  0  0
  5 11  1  0  0  0  0
  5 13  2  0  0  0  0
  6  7  1  0  0  0  0
  6  8  1  0  0  0  0
  7  8  1  0  0  0  0
  8  9  1  0  0  0  0
  8 12  1  0  0  0  0
 10 14  1  0  0  0  0
 10 15  1  0  0  0  0
 10 16  1  0  0  0  0
  1 17  1  0  0  0  0
  2 18  1  0  0  0  0
  6 19  1  0  0  0  0
  6 20  1  0  0  0  0
  7 21  1  0  0  0  0
  7 22  1  0  0  0  0
  9 23  1  0  0  0  0
  9 24  1  0  0  0  0
  9 25  1  0  0  0  0
 11 26  1  0  0  0  0
 12 27  1  0  0  0  0
M  END
> <HYBRID receptor title>
5S18(A) > WOY(A-201)

> <HYBRID receptor filename>
experiments/data/docking/5s18.oedu

> <HYBRID Chemgauss4 score>
-7.348064

> <HYBRID receptor title>
5S18(A) > WOY(A-201)

> <HYBRID receptor filename>
experiments/data/docking/5s18.oedu

> <Dock Type>
Hybrid

$$$$
MOL0345
  -OEChem-07032415493D

 28 29  0     1  0  0  0  0  0999 V2000
   -2.5717   14.8309   -0.7540 C   0  0  0  0  0  0  0  0  0  0  0  0
   -4.4166   13.7552   -1.8475 C   0  0  0  0  0  0  0  0  0  0  0  0
   -3.9955   14.6064   -0.9021 C   0  0  0  0  0  0  0  0  0  0  0  0
   -1.6594   14.2186   -1.5284 C   0  0  0  0  0  0  0  0  0  0  0  0
   -2.1523   13.2656   -2.5849 C   0  0  0  0  0  0  0  0  0  0  0  0
    0.3347   14.7422   -0.1959 C   0  0  0  0  0  0  0  0  0  0  0  0
    1.9979   14.4347   -1.8411 C   0  0  0  0  0  0  0  0  0  0  0  0
    0.6250   14.2930   -2.5076 C   0  0  2  0  0  0  0  0  0  0  0  0
    0.4161   15.3595   -3.5790 C   0  0  0  0  0  0  0  0  0  0  0  0
   -4.9195   15.3427    0.0150 C   0  0  0  0  0  0  0  0  0  0  0  0
   -3.5262   13.1060   -2.6621 N   0  0  0  0  0  0  0  0  0  0  0  0
    1.7094   14.7802   -0.4724 N   0  0  0  0  0  0  0  0  0  0  0  0
   -0.3181   14.4175   -1.4042 N   0  0  0  0  0  0  0  0  0  0  0  0
   -1.3631   12.6772   -3.3218 O   0  0  0  0  0  0  0  0  0  0  0  0
   -0.1759   14.9454    0.8985 O   0  0  0  0  0  0  0  0  0  0  0  0
   -4.2307   16.1308    0.8671 F   0  0  0  0  0  0  0  0  0  0  0  0
   -5.7708   16.1293   -0.6763 F   0  0  0  0  0  0  0  0  0  0  0  0
   -5.6573   14.4853    0.7514 F   0  0  0  0  0  0  0  0  0  0  0  0
   -2.2551   15.5256    0.0196 H   0  0  0  0  0  0  0  0  0  0  0  0
   -5.4618   13.5321   -2.0231 H   0  0  0  0  0  0  0  0  0  0  0  0
    2.5442   13.4865   -1.8356 H   0  0  0  0  0  0  0  0  0  0  0  0
    2.6276   15.2172   -2.2740 H   0  0  0  0  0  0  0  0  0  0  0  0
    0.5181   13.2931   -2.9455 H   0  0  0  0  0  0  0  0  0  0  0  0
    0.5230   16.3506   -3.1407 H   0  0  0  0  0  0  0  0  0  0  0  0
   -0.5812   15.2649   -4.0061 H   0  0  0  0  0  0  0  0  0  0  0  0
    1.1549   15.2391   -4.3710 H   0  0  0  0  0  0  0  0  0  0  0  0
   -3.9054   12.4728   -3.3601 H   0  0  0  0  0  0  0  0  0  0  0  0
    2.4184   15.0228    0.2121 H   0  0  0  0  0  0  0  0  0  0  0  0
  1  3  1  0  0  0  0
  1  4  2  0  0  0  0
  2  3  2  0  0  0  0
  2 11  1  0  0  0  0
  3 10  1  0  0  0  0
  4  5  1  0  0  0  0
  4 13  1  0  0  0  0
  5 11  1  0  0  0  0
  5 14  2  0  0  0  0
  6 12  1  0  0  0  0
  6 13  1  0  0  0  0
  6 15  2  0  0  0  0
  7  8  1  0  0  0  0
  7 12  1  0  0  0  0
  8  9  1  0  0  0  0
  8 13  1  0  0  0  0
 10 16  1  0  0  0  0
 10 17  1  0  0  0  0
 10 18  1  0  0  0  0
  1 19  1  0  0  0  0
  2 20  1  0  0  0  0
  7 21  1  0  0  0  0
  7 22  1  0  0  0  0
  8 23  1  0  0  0  0
  9 24  1  0  0  0  0
  9 25  1  0  0  0  0
  9 26  1  0  0  0  0
 11 27  1  0  0  0  0
 12 28  1  0  0  0  0
M  END
> <HYBRID receptor title>
5S18(A) > WOY(A-201)

> <HYBRID receptor filename>
experiments/data/docking/5s18.oedu

> <HYBRID Chemgauss4 score>
-7.346229

> <HYBRID receptor title>
5S18(A) > WOY(A-201)

> <HYBRID receptor filename>
experiments/data/docking/5s18.oedu

> <Dock Type>
Hybrid

$$$$
MOL0066
  -OEChem-07032415493D

 23 23  0     0  0  0  0  0  0999 V2000
   -2.7766   14.5935   -1.1546 C   0  0  0  0  0  0  0  0  0  0  0  0
   -4.3653   14.8819    0.6200 C   0  0  0  0  0  0  0  0  0  0  0  0
   -4.1447   14.7000   -0.6892 C   0  0  0  0  0  0  0  0  0  0  0  0
   -1.7227   14.6697   -0.3236 C   0  0  0  0  0  0  0  0  0  0  0  0
   -1.9913   14.8743    1.1438 C   0  0  0  0  0  0  0  0  0  0  0  0
   -0.0062   13.7830   -1.8498 C   0  0  0  0  0  0  0  0  0  0  0  0
    0.6037   15.4515   -0.1280 C   0  0  0  0  0  0  0  0  0  0  0  0
   -5.2388   14.6004   -1.7038 C   0  0  0  0  0  0  0  0  0  0  0  0
   -3.3249   14.9663    1.5076 N   0  0  0  0  0  0  0  0  0  0  0  0
   -0.4151   14.5772   -0.6973 N   0  0  0  0  0  0  0  0  0  0  0  0
   -1.0685   14.9519    1.9529 O   0  0  0  0  0  0  0  0  0  0  0  0
   -4.7360   14.4188   -2.9432 F   0  0  0  0  0  0  0  0  0  0  0  0
   -6.0605   13.5636   -1.4371 F   0  0  0  0  0  0  0  0  0  0  0  0
   -5.9868   15.7238   -1.7231 F   0  0  0  0  0  0  0  0  0  0  0  0
   -2.6208   14.4467   -2.2200 H   0  0  0  0  0  0  0  0  0  0  0  0
   -5.3559   14.9713    1.0485 H   0  0  0  0  0  0  0  0  0  0  0  0
    1.0778   13.8339   -1.9868 H   0  0  0  0  0  0  0  0  0  0  0  0
   -0.2934   12.7371   -1.7090 H   0  0  0  0  0  0  0  0  0  0  0  0
   -0.4925   14.1545   -2.7560 H   0  0  0  0  0  0  0  0  0  0  0  0
    1.5861   15.2243   -0.5520 H   0  0  0  0  0  0  0  0  0  0  0  0
    0.3642   16.4977   -0.3380 H   0  0  0  0  0  0  0  0  0  0  0  0
    0.6507   15.3202    0.9566 H   0  0  0  0  0  0  0  0  0  0  0  0
   -3.5442   15.1045    2.4898 H   0  0  0  0  0  0  0  0  0  0  0  0
  1  3  1  0  0  0  0
  1  4  2  0  0  0  0
  2  3  2  0  0  0  0
  2  9  1  0  0  0  0
  3  8  1  0  0  0  0
  4  5  1  0  0  0  0
  4 10  1  0  0  0  0
  5  9  1  0  0  0  0
  5 11  2  0  0  0  0
  6 10  1  0  0  0  0
  7 10  1  0  0  0  0
  8 12  1  0  0  0  0
  8 13  1  0  0  0  0
  8 14  1  0  0  0  0
  1 15  1  0  0  0  0
  2 16  1  0  0  0  0
  6 17  1  0  0  0  0
  6 18  1  0  0  0  0
  6 19  1  0  0  0  0
  7 20  1  0  0  0  0
  7 21  1  0  0  0  0
  7 22  1  0  0  0  0
  9 23  1  0  0  0  0
M  END
> <HYBRID receptor title>
5S18(A) > WOY(A-201)

> <HYBRID receptor filename>
experiments/data/docking/5s18.oedu

> <HYBRID Chemgauss4 score>
-7.336385

> <HYBRID receptor title>
5S18(A) > WOY(A-201)

> <HYBRID receptor filename>
experiments/data/docking/5s18.oedu

> <Dock Type>
Hybrid

$$$$
MOL0357
  -OEChem-07032415493D

 31 32  0     1  0  0  0  0  0999 V2000
   -3.4784   14.7633   -1.2653 C   0  0  0  0  0  0  0  0  0  0  0  0
   -2.4257   14.7072    0.9264 C   0  0  0  0  0  0  0  0  0  0  0  0
   -2.3293   14.6925   -0.4065 C   0  0  0  0  0  0  0  0  0  0  0  0
   -4.6783   14.8473   -0.6797 C   0  0  0  0  0  0  0  0  0  0  0  0
   -4.8594   14.8699    0.7971 C   0  0  0  0  0  0  0  0  0  0  0  0
   -0.9387   14.5863   -2.4718 C   0  0  0  0  0  0  0  0  0  0  0  0
    0.1563   14.5357   -0.3198 C   0  0  0  0  0  0  0  0  0  0  0  0
    0.5690   14.7982   -2.6577 C   0  0  1  0  0  0  0  0  0  0  0  0
    1.1454   14.1155   -1.4113 C   0  0  1  0  0  0  0  0  0  0  0  0
    1.0952   14.2344   -3.9678 C   0  0  0  0  0  0  0  0  0  0  0  0
   -3.6683   14.7944    1.5173 N   0  0  0  0  0  0  0  0  0  0  0  0
   -1.1220   14.6081   -1.0224 N   0  0  3  0  0  0  0  0  0  0  0  0
   -5.8415   14.9199   -1.3990 N   0  0  0  0  0  0  0  0  0  0  0  0
    2.5180   14.4994   -1.1227 N   0  0  0  0  0  0  0  0  0  0  0  0
   -5.9667   14.9481    1.3221 O   0  0  0  0  0  0  0  0  0  0  0  0
   -3.3620   14.7480   -2.3434 H   0  0  0  0  0  0  0  0  0  0  0  0
   -1.5809   14.6551    1.6018 H   0  0  0  0  0  0  0  0  0  0  0  0
   -1.5090   15.3805   -2.9662 H   0  0  0  0  0  0  0  0  0  0  0  0
   -1.2640   13.6181   -2.8695 H   0  0  0  0  0  0  0  0  0  0  0  0
    0.1367   13.8068    0.4981 H   0  0  0  0  0  0  0  0  0  0  0  0
    0.3980   15.5222    0.0946 H   0  0  0  0  0  0  0  0  0  0  0  0
    0.7801   15.8763   -2.6253 H   0  0  0  0  0  0  0  0  0  0  0  0
    1.1053   13.0248   -1.5333 H   0  0  0  0  0  0  0  0  0  0  0  0
    0.8966   13.1631   -4.0227 H   0  0  0  0  0  0  0  0  0  0  0  0
    2.1714   14.3965   -4.0415 H   0  0  0  0  0  0  0  0  0  0  0  0
    0.6074   14.7258   -4.8119 H   0  0  0  0  0  0  0  0  0  0  0  0
   -3.7185   14.8041    2.5318 H   0  0  0  0  0  0  0  0  0  0  0  0
   -5.7843   14.9092   -2.3915 H   0  0  0  0  0  0  0  0  0  0  0  0
   -6.7005   14.9805   -0.9028 H   0  0  0  0  0  0  0  0  0  0  0  0
    3.1219   14.1833   -1.8792 H   0  0  0  0  0  0  0  0  0  0  0  0
    2.8341   14.0150   -0.2842 H   0  0  0  0  0  0  0  0  0  0  0  0
  1  3  1  0  0  0  0
  1  4  2  0  0  0  0
  2  3  2  0  0  0  0
  2 11  1  0  0  0  0
  3 12  1  0  0  0  0
  4  5  1  0  0  0  0
  4 13  1  0  0  0  0
  5 11  1  0  0  0  0
  5 15  2  0  0  0  0
  6  8  1  0  0  0  0
  6 12  1  0  0  0  0
  7  9  1  0  0  0  0
  7 12  1  0  0  0  0
  8  9  1  0  0  0  0
  8 10  1  0  0  0  0
  9 14  1  0  0  0  0
  1 16  1  0  0  0  0
  2 17  1  0  0  0  0
  6 18  1  0  0  0  0
  6 19  1  0  0  0  0
  7 20  1  0  0  0  0
  7 21  1  0  0  0  0
  8 22  1  0  0  0  0
  9 23  1  0  0  0  0
 10 24  1  0  0  0  0
 10 25  1  0  0  0  0
 10 26  1  0  0  0  0
 11 27  1  0  0  0  0
 13 28  1  0  0  0  0
 13 29  1  0  0  0  0
 14 30  1  0  0  0  0
 14 31  1  0  0  0  0
M  END
> <HYBRID receptor title>
5S18(A) > WOY(A-201)

> <HYBRID receptor filename>
experiments/data/docking/5s18.oedu

> <HYBRID Chemgauss4 score>
-7.331537

> <HYBRID receptor title>
5S18(A) > WOY(A-201)

> <HYBRID receptor filename>
experiments/data/docking/5s18.oedu

> <Dock Type>
Hybrid

$$$$
MOL0316
  -OEChem-07032415493D

 30 31  0     0  0  0  0  0  0999 V2000
   -4.3627   14.4448   -1.2138 C   0  0  0  0  0  0  0  0  0  0  0  0
   -5.3541   14.5173    0.9699 C   0  0  0  0  0  0  0  0  0  0  0  0
   -5.5181   14.3301   -0.3469 C   0  0  0  0  0  0  0  0  0  0  0  0
   -3.1349   14.7309   -0.7473 C   0  0  0  0  0  0  0  0  0  0  0  0
   -2.9711   14.9379    0.7352 C   0  0  0  0  0  0  0  0  0  0  0  0
   -0.1557   14.4100   -3.6943 C   0  0  0  0  0  0  0  0  0  0  0  0
   -0.3539   13.3512   -2.6101 C   0  0  0  0  0  0  0  0  0  0  0  0
   -1.4290   15.2297   -3.9027 C   0  0  0  0  0  0  0  0  0  0  0  0
   -0.8204   13.9785   -1.3023 C   0  0  0  0  0  0  0  0  0  0  0  0
   -1.8997   15.8620   -2.5985 C   0  0  0  0  0  0  0  0  0  0  0  0
   -6.8359   14.0075   -0.9760 C   0  0  0  0  0  0  0  0  0  0  0  0
   -4.1228   14.8113    1.4946 N   0  0  0  0  0  0  0  0  0  0  0  0
   -1.9840   14.8551   -1.5259 N   0  0  0  0  0  0  0  0  0  0  0  0
   -1.8729   15.2020    1.2213 O   0  0  0  0  0  0  0  0  0  0  0  0
   -6.7146   13.8717   -2.3134 F   0  0  0  0  0  0  0  0  0  0  0  0
   -7.3412   12.8546   -0.4894 F   0  0  0  0  0  0  0  0  0  0  0  0
   -7.7379   14.9837   -0.7411 F   0  0  0  0  0  0  0  0  0  0  0  0
   -4.5186   14.2895   -2.2780 H   0  0  0  0  0  0  0  0  0  0  0  0
   -6.1647   14.4496    1.6849 H   0  0  0  0  0  0  0  0  0  0  0  0
    0.6689   15.0760   -3.4123 H   0  0  0  0  0  0  0  0  0  0  0  0
    0.1288   13.9256   -4.6350 H   0  0  0  0  0  0  0  0  0  0  0  0
   -1.0924   12.6138   -2.9484 H   0  0  0  0  0  0  0  0  0  0  0  0
    0.5855   12.8113   -2.4464 H   0  0  0  0  0  0  0  0  0  0  0  0
   -1.2455   16.0121   -4.6476 H   0  0  0  0  0  0  0  0  0  0  0  0
   -2.2193   14.5834   -4.3044 H   0  0  0  0  0  0  0  0  0  0  0  0
   -1.0555   13.1800   -0.5879 H   0  0  0  0  0  0  0  0  0  0  0  0
   -0.0118   14.5760   -0.8640 H   0  0  0  0  0  0  0  0  0  0  0  0
   -1.1983   16.6459   -2.2877 H   0  0  0  0  0  0  0  0  0  0  0  0
   -2.8698   16.3452   -2.7668 H   0  0  0  0  0  0  0  0  0  0  0  0
   -4.0504   14.9441    2.4990 H   0  0  0  0  0  0  0  0  0  0  0  0
  1  3  1  0  0  0  0
  1  4  2  0  0  0  0
  2  3  2  0  0  0  0
  2 12  1  0  0  0  0
  3 11  1  0  0  0  0
  4  5  1  0  0  0  0
  4 13  1  0  0  0  0
  5 12  1  0  0  0  0
  5 14  2  0  0  0  0
  6  7  1  0  0  0  0
  6  8  1  0  0  0  0
  7  9  1  0  0  0  0
  8 10  1  0  0  0  0
  9 13  1  0  0  0  0
 10 13  1  0  0  0  0
 11 15  1  0  0  0  0
 11 16  1  0  0  0  0
 11 17  1  0  0  0  0
  1 18  1  0  0  0  0
  2 19  1  0  0  0  0
  6 20  1  0  0  0  0
  6 21  1  0  0  0  0
  7 22  1  0  0  0  0
  7 23  1  0  0  0  0
  8 24  1  0  0  0  0
  8 25  1  0  0  0  0
  9 26  1  0  0  0  0
  9 27  1  0  0  0  0
 10 28  1  0  0  0  0
 10 29  1  0  0  0  0
 12 30  1  0  0  0  0
M  END
> <HYBRID receptor title>
5S18(A) > WOY(A-201)

> <HYBRID receptor filename>
experiments/data/docking/5s18.oedu

> <HYBRID Chemgauss4 score>
-7.330974

> <HYBRID receptor title>
5S18(A) > WOY(A-201)

> <HYBRID receptor filename>
experiments/data/docking/5s18.oedu

> <Dock Type>
Hybrid

$$$$
MOL0302
  -OEChem-07032415493D

 28 29  0     0  0  0  0  0  0999 V2000
   -2.4452   14.6593   -0.9125 C   0  0  0  0  0  0  0  0  0  0  0  0
   -4.5498   14.6079   -2.8318 C   0  0  0  0  0  0  0  0  0  0  0  0
   -4.1801   14.6733    0.7539 C   0  0  0  0  0  0  0  0  0  0  0  0
   -3.8377   14.6540   -0.5382 C   0  0  0  0  0  0  0  0  0  0  0  0
   -4.9064   14.6274   -1.5394 C   0  0  0  0  0  0  0  0  0  0  0  0
   -1.4623   14.6839    0.0051 C   0  0  0  0  0  0  0  0  0  0  0  0
   -1.8525   14.7063    1.4616 C   0  0  0  0  0  0  0  0  0  0  0  0
   -5.5554   14.5700   -3.9462 C   0  0  0  0  0  0  0  0  0  0  0  0
   -6.3281   14.6462   -1.0664 C   0  0  0  0  0  0  0  0  0  0  0  0
   -6.9751   14.2450   -3.4722 C   0  0  0  0  0  0  0  0  0  0  0  0
   -7.3166   14.9906   -2.1845 C   0  0  0  0  0  0  0  0  0  0  0  0
   -3.2135   14.6990    1.7266 N   0  0  0  0  0  0  0  0  0  0  0  0
   -0.1270   14.6909   -0.2690 N   0  0  0  0  0  0  0  0  0  0  0  0
   -0.9980   14.7296    2.3459 O   0  0  0  0  0  0  0  0  0  0  0  0
   -2.2011   14.6432   -1.9712 H   0  0  0  0  0  0  0  0  0  0  0  0
   -3.5020   14.6160   -3.1217 H   0  0  0  0  0  0  0  0  0  0  0  0
   -5.2015   14.6707    1.1163 H   0  0  0  0  0  0  0  0  0  0  0  0
   -5.5490   15.5449   -4.4483 H   0  0  0  0  0  0  0  0  0  0  0  0
   -5.2480   13.8248   -4.6887 H   0  0  0  0  0  0  0  0  0  0  0  0
   -6.5782   13.6601   -0.6540 H   0  0  0  0  0  0  0  0  0  0  0  0
   -6.4589   15.3763   -0.2580 H   0  0  0  0  0  0  0  0  0  0  0  0
   -7.6944   14.5018   -4.2579 H   0  0  0  0  0  0  0  0  0  0  0  0
   -7.0647   13.1647   -3.2992 H   0  0  0  0  0  0  0  0  0  0  0  0
   -8.3352   14.7436   -1.8648 H   0  0  0  0  0  0  0  0  0  0  0  0
   -7.2949   16.0714   -2.3749 H   0  0  0  0  0  0  0  0  0  0  0  0
   -3.5228   14.7134    2.6941 H   0  0  0  0  0  0  0  0  0  0  0  0
    0.1660   14.6770   -1.2222 H   0  0  0  0  0  0  0  0  0  0  0  0
    0.5175   14.7099    0.4913 H   0  0  0  0  0  0  0  0  0  0  0  0
  1  4  1  0  0  0  0
  1  6  2  0  0  0  0
  2  5  2  0  0  0  0
  2  8  1  0  0  0  0
  3  4  2  0  0  0  0
  3 12  1  0  0  0  0
  4  5  1  0  0  0  0
  5  9  1  0  0  0  0
  6  7  1  0  0  0  0
  6 13  1  0  0  0  0
  7 12  1  0  0  0  0
  7 14  2  0  0  0  0
  8 10  1  0  0  0  0
  9 11  1  0  0  0  0
 10 11  1  0  0  0  0
  1 15  1  0  0  0  0
  2 16  1  0  0  0  0
  3 17  1  0  0  0  0
  8 18  1  0  0  0  0
  8 19  1  0  0  0  0
  9 20  1  0  0  0  0
  9 21  1  0  0  0  0
 10 22  1  0  0  0  0
 10 23  1  0  0  0  0
 11 24  1  0  0  0  0
 11 25  1  0  0  0  0
 12 26  1  0  0  0  0
 13 27  1  0  0  0  0
 13 28  1  0  0  0  0
M  END
> <HYBRID receptor title>
5S18(A) > WOY(A-201)

> <HYBRID receptor filename>
experiments/data/docking/5s18.oedu

> <HYBRID Chemgauss4 score>
-7.321281

> <HYBRID receptor title>
5S18(A) > WOY(A-201)

> <HYBRID receptor filename>
experiments/data/docking/5s18.oedu

> <Dock Type>
Hybrid

$$$$
MOL0323
  -OEChem-07032415493D

 24 24  0     1  0  0  0  0  0999 V2000
   -2.7847   14.7079   -1.1585 C   0  0  0  0  0  0  0  0  0  0  0  0
   -4.4091   14.9187    0.6032 C   0  0  0  0  0  0  0  0  0  0  0  0
   -4.1478   14.8310   -0.7050 C   0  0  0  0  0  0  0  0  0  0  0  0
   -1.7496   14.6781   -0.3004 C   0  0  0  0  0  0  0  0  0  0  0  0
   -2.0483   14.7779    1.1745 C   0  0  0  0  0  0  0  0  0  0  0  0
   -5.2678   14.8625   -1.6454 C   0  0  0  0  0  0  0  0  0  0  0  0
   -7.2898   13.6270   -0.8381 C   0  0  0  0  0  0  0  0  0  0  0  0
   -6.6704   14.9953   -1.0633 C   0  0  2  0  0  0  0  0  0  0  0  0
   -3.3869   14.8930    1.5172 N   0  0  0  0  0  0  0  0  0  0  0  0
   -0.4372   14.5643   -0.6506 N   0  0  0  0  0  0  0  0  0  0  0  0
   -7.4539   15.7819   -1.9797 N   0  0  0  0  0  0  0  0  0  0  0  0
   -1.1433   14.7565    2.0068 O   0  0  0  0  0  0  0  0  0  0  0  0
   -5.0643   14.7490   -2.8593 O   0  0  0  0  0  0  0  0  0  0  0  0
   -2.6112   14.6390   -2.2286 H   0  0  0  0  0  0  0  0  0  0  0  0
   -5.4053   15.0128    1.0182 H   0  0  0  0  0  0  0  0  0  0  0  0
   -7.3389   13.0525   -1.7706 H   0  0  0  0  0  0  0  0  0  0  0  0
   -6.7028   13.0439   -0.1201 H   0  0  0  0  0  0  0  0  0  0  0  0
   -8.3104   13.7199   -0.4516 H   0  0  0  0  0  0  0  0  0  0  0  0
   -6.6266   15.5596   -0.1262 H   0  0  0  0  0  0  0  0  0  0  0  0
   -3.6350   14.9630    2.4998 H   0  0  0  0  0  0  0  0  0  0  0  0
   -0.2041   14.4963   -1.6179 H   0  0  0  0  0  0  0  0  0  0  0  0
    0.2513   14.5524    0.0703 H   0  0  0  0  0  0  0  0  0  0  0  0
   -7.0295   16.7049   -2.1015 H   0  0  0  0  0  0  0  0  0  0  0  0
   -8.3827   15.9571   -1.5872 H   0  0  0  0  0  0  0  0  0  0  0  0
  1  3  1  0  0  0  0
  1  4  2  0  0  0  0
  2  3  2  0  0  0  0
  2  9  1  0  0  0  0
  3  6  1  0  0  0  0
  4  5  1  0  0  0  0
  4 10  1  0  0  0  0
  5  9  1  0  0  0  0
  5 12  2  0  0  0  0
  6  8  1  0  0  0  0
  6 13  2  0  0  0  0
  7  8  1  0  0  0  0
  8 11  1  0  0  0  0
  1 14  1  0  0  0  0
  2 15  1  0  0  0  0
  7 16  1  0  0  0  0
  7 17  1  0  0  0  0
  7 18  1  0  0  0  0
  8 19  1  0  0  0  0
  9 20  1  0  0  0  0
 10 21  1  0  0  0  0
 10 22  1  0  0  0  0
 11 23  1  0  0  0  0
 11 24  1  0  0  0  0
M  END
> <HYBRID receptor title>
5S18(A) > WOY(A-201)

> <HYBRID receptor filename>
experiments/data/docking/5s18.oedu

> <HYBRID Chemgauss4 score>
-7.320553

> <HYBRID receptor title>
5S18(A) > WOY(A-201)

> <HYBRID receptor filename>
experiments/data/docking/5s18.oedu

> <Dock Type>
Hybrid

$$$$
MOL0377
  -OEChem-07032415493D

 27 28  0     0  0  0  0  0  0999 V2000
   -2.7551   14.5744   -1.0065 C   0  0  0  0  0  0  0  0  0  0  0  0
   -4.3539   14.6149    0.7820 C   0  0  0  0  0  0  0  0  0  0  0  0
   -4.1261   14.5620   -0.5375 C   0  0  0  0  0  0  0  0  0  0  0  0
   -1.7055   14.6364   -0.1690 C   0  0  0  0  0  0  0  0  0  0  0  0
   -1.9821   14.6953    1.3100 C   0  0  0  0  0  0  0  0  0  0  0  0
    1.5323   13.7103   -3.1119 C   0  0  0  0  0  0  0  0  0  0  0  0
    0.2797   13.1606   -2.3961 C   0  0  0  0  0  0  0  0  0  0  0  0
    1.5465   14.8399   -2.0602 C   0  0  0  0  0  0  0  0  0  0  0  0
    0.0290   14.6014   -1.8984 C   0  0  0  0  0  0  0  0  0  0  0  0
   -5.2150   14.4906   -1.5601 C   0  0  0  0  0  0  0  0  0  0  0  0
   -3.3180   14.6794    1.6767 N   0  0  0  0  0  0  0  0  0  0  0  0
   -0.3956   14.6512   -0.5456 N   0  0  0  0  0  0  0  0  0  0  0  0
   -1.0635   14.7532    2.1254 O   0  0  0  0  0  0  0  0  0  0  0  0
   -4.7054   14.4477   -2.8091 F   0  0  0  0  0  0  0  0  0  0  0  0
   -5.9763   13.3896   -1.3881 F   0  0  0  0  0  0  0  0  0  0  0  0
   -6.0253   15.5673   -1.4823 F   0  0  0  0  0  0  0  0  0  0  0  0
   -2.5936   14.5311   -2.0803 H   0  0  0  0  0  0  0  0  0  0  0  0
   -5.3471   14.6102    1.2139 H   0  0  0  0  0  0  0  0  0  0  0  0
    2.4051   13.0530   -3.1169 H   0  0  0  0  0  0  0  0  0  0  0  0
    1.3398   14.0597   -4.1328 H   0  0  0  0  0  0  0  0  0  0  0  0
   -0.4899   12.7449   -3.0519 H   0  0  0  0  0  0  0  0  0  0  0  0
    0.5109   12.4297   -1.6117 H   0  0  0  0  0  0  0  0  0  0  0  0
    2.1525   14.6055   -1.1766 H   0  0  0  0  0  0  0  0  0  0  0  0
    1.8341   15.8256   -2.4355 H   0  0  0  0  0  0  0  0  0  0  0  0
   -0.5955   15.2065   -2.5680 H   0  0  0  0  0  0  0  0  0  0  0  0
   -3.5427   14.7178    2.6666 H   0  0  0  0  0  0  0  0  0  0  0  0
    0.3021   14.7026    0.1781 H   0  0  0  0  0  0  0  0  0  0  0  0
  1  3  1  0  0  0  0
  1  4  2  0  0  0  0
  2  3  2  0  0  0  0
  2 11  1  0  0  0  0
  3 10  1  0  0  0  0
  4  5  1  0  0  0  0
  4 12  1  0  0  0  0
  5 11  1  0  0  0  0
  5 13  2  0  0  0  0
  6  7  1  0  0  0  0
  6  8  1  0  0  0  0
  7  9  1  0  0  0  0
  8  9  1  0  0  0  0
  9 12  1  0  0  0  0
 10 14  1  0  0  0  0
 10 15  1  0  0  0  0
 10 16  1  0  0  0  0
  1 17  1  0  0  0  0
  2 18  1  0  0  0  0
  6 19  1  0  0  0  0
  6 20  1  0  0  0  0
  7 21  1  0  0  0  0
  7 22  1  0  0  0  0
  8 23  1  0  0  0  0
  8 24  1  0  0  0  0
  9 25  1  0  0  0  0
 11 26  1  0  0  0  0
 12 27  1  0  0  0  0
M  END
> <HYBRID receptor title>
5S18(A) > WOY(A-201)

> <HYBRID receptor filename>
experiments/data/docking/5s18.oedu

> <HYBRID Chemgauss4 score>
-7.313696

> <HYBRID receptor title>
5S18(A) > WOY(A-201)

> <HYBRID receptor filename>
experiments/data/docking/5s18.oedu

> <Dock Type>
Hybrid

$$$$
MOL0014
  -OEChem-07032415493D

 17 17  0     0  0  0  0  0  0999 V2000
   -2.9405   14.7088   -1.1490 C   0  0  0  0  0  0  0  0  0  0  0  0
   -4.3179   14.5035   -0.7316 C   0  0  0  0  0  0  0  0  0  0  0  0
   -1.9324   14.8947   -0.2794 C   0  0  0  0  0  0  0  0  0  0  0  0
   -4.5794   14.5022    0.5839 C   0  0  0  0  0  0  0  0  0  0  0  0
   -2.2563   14.8888    1.1892 C   0  0  0  0  0  0  0  0  0  0  0  0
   -5.3158   14.3112   -1.8351 C   0  0  0  0  0  0  0  0  0  0  0  0
   -3.5872   14.6876    1.5105 N   0  0  0  0  0  0  0  0  0  0  0  0
   -0.6260   15.0903   -0.6158 N   0  0  0  0  0  0  0  0  0  0  0  0
   -1.3787   15.0542    2.0344 O   0  0  0  0  0  0  0  0  0  0  0  0
   -4.7158   14.3689   -3.0409 F   0  0  0  0  0  0  0  0  0  0  0  0
   -5.9275   13.1145   -1.7323 F   0  0  0  0  0  0  0  0  0  0  0  0
   -6.2653   15.2675   -1.7968 F   0  0  0  0  0  0  0  0  0  0  0  0
   -6.1221   14.2790    1.2950 Cl  0  0  0  0  0  0  0  0  0  0  0  0
   -2.7386   14.7079   -2.2173 H   0  0  0  0  0  0  0  0  0  0  0  0
   -3.8442   14.6768    2.4929 H   0  0  0  0  0  0  0  0  0  0  0  0
   -0.3767   15.0998   -1.5814 H   0  0  0  0  0  0  0  0  0  0  0  0
    0.0419   15.2183    0.1131 H   0  0  0  0  0  0  0  0  0  0  0  0
  1  2  1  0  0  0  0
  1  3  2  0  0  0  0
  2  4  2  0  0  0  0
  2  6  1  0  0  0  0
  3  5  1  0  0  0  0
  3  8  1  0  0  0  0
  4  7  1  0  0  0  0
  4 13  1  0  0  0  0
  5  7  1  0  0  0  0
  5  9  2  0  0  0  0
  6 10  1  0  0  0  0
  6 11  1  0  0  0  0
  6 12  1  0  0  0  0
  1 14  1  0  0  0  0
  7 15  1  0  0  0  0
  8 16  1  0  0  0  0
  8 17  1  0  0  0  0
M  END
> <HYBRID receptor title>
5S18(A) > WOY(A-201)

> <HYBRID receptor filename>
experiments/data/docking/5s18.oedu

> <HYBRID Chemgauss4 score>
-7.310189

> <HYBRID receptor title>
5S18(A) > WOY(A-201)

> <HYBRID receptor filename>
experiments/data/docking/5s18.oedu

> <Dock Type>
Hybrid

$$$$
MOL0234
  -OEChem-07032415493D

 25 25  0     0  0  0  0  0  0999 V2000
   -1.1365   14.6060   -1.8521 C   0  0  0  0  0  0  0  0  0  0  0  0
    1.2427   14.4980   -1.5617 C   0  0  0  0  0  0  0  0  0  0  0  0
    0.1959   14.4367   -2.3960 C   0  0  0  0  0  0  0  0  0  0  0  0
   -1.3610   14.8221   -0.5445 C   0  0  0  0  0  0  0  0  0  0  0  0
   -0.1718   14.8875    0.3769 C   0  0  0  0  0  0  0  0  0  0  0  0
   -3.7492   14.3914   -0.5376 C   0  0  0  0  0  0  0  0  0  0  0  0
   -5.2320   13.8034    1.4212 C   0  0  0  0  0  0  0  0  0  0  0  0
   -4.9822   14.7594    0.2687 C   0  0  0  0  0  0  0  0  0  0  0  0
    0.3268   14.2018   -3.8672 C   0  0  0  0  0  0  0  0  0  0  0  0
    1.0664   14.7159   -0.2204 N   0  0  0  0  0  0  0  0  0  0  0  0
   -2.6053   14.9840   -0.0157 N   0  0  0  0  0  0  0  0  0  0  0  0
   -0.3173   15.0825    1.5822 O   0  0  0  0  0  0  0  0  0  0  0  0
   -3.7884   13.6595   -1.5231 O   0  0  0  0  0  0  0  0  0  0  0  0
   -0.8830   14.1873   -4.4656 F   0  0  0  0  0  0  0  0  0  0  0  0
    1.0643   15.1681   -4.4532 F   0  0  0  0  0  0  0  0  0  0  0  0
    0.9250   13.0182   -4.1183 F   0  0  0  0  0  0  0  0  0  0  0  0
   -1.9691   14.5521   -2.5487 H   0  0  0  0  0  0  0  0  0  0  0  0
    2.2692   14.3820   -1.8871 H   0  0  0  0  0  0  0  0  0  0  0  0
   -4.3740   13.7925    2.1002 H   0  0  0  0  0  0  0  0  0  0  0  0
   -6.1166   14.0996    1.9940 H   0  0  0  0  0  0  0  0  0  0  0  0
   -5.3935   12.7835    1.0578 H   0  0  0  0  0  0  0  0  0  0  0  0
   -5.8488   14.7599   -0.4023 H   0  0  0  0  0  0  0  0  0  0  0  0
   -4.8531   15.7763    0.6566 H   0  0  0  0  0  0  0  0  0  0  0  0
    1.8981   14.7521    0.3618 H   0  0  0  0  0  0  0  0  0  0  0  0
   -2.7033   15.5723    0.8086 H   0  0  0  0  0  0  0  0  0  0  0  0
  1  3  1  0  0  0  0
  1  4  2  0  0  0  0
  2  3  2  0  0  0  0
  2 10  1  0  0  0  0
  3  9  1  0  0  0  0
  4  5  1  0  0  0  0
  4 11  1  0  0  0  0
  5 10  1  0  0  0  0
  5 12  2  0  0  0  0
  6  8  1  0  0  0  0
  6 11  1  0  0  0  0
  6 13  2  0  0  0  0
  7  8  1  0  0  0  0
  9 14  1  0  0  0  0
  9 15  1  0  0  0  0
  9 16  1  0  0  0  0
  1 17  1  0  0  0  0
  2 18  1  0  0  0  0
  7 19  1  0  0  0  0
  7 20  1  0  0  0  0
  7 21  1  0  0  0  0
  8 22  1  0  0  0  0
  8 23  1  0  0  0  0
 10 24  1  0  0  0  0
 11 25  1  0  0  0  0
M  END
> <HYBRID receptor title>
5S18(A) > WOY(A-201)

> <HYBRID receptor filename>
experiments/data/docking/5s18.oedu

> <HYBRID Chemgauss4 score>
-7.301187

> <HYBRID receptor title>
5S18(A) > WOY(A-201)

> <HYBRID receptor filename>
experiments/data/docking/5s18.oedu

> <Dock Type>
Hybrid

$$$$
MOL0271
  -OEChem-07032415493D

 20 20  0     0  0  0  0  0  0999 V2000
   -3.3853   14.9062   -1.1401 C   0  0  0  0  0  0  0  0  0  0  0  0
   -4.7065   14.6779   -0.5773 C   0  0  0  0  0  0  0  0  0  0  0  0
   -2.2758   15.0140   -0.3924 C   0  0  0  0  0  0  0  0  0  0  0  0
   -4.8307   14.5605    0.7607 C   0  0  0  0  0  0  0  0  0  0  0  0
   -2.4233   14.8897    1.0945 C   0  0  0  0  0  0  0  0  0  0  0  0
   -6.1026   14.3054    1.5154 C   0  0  0  0  0  0  0  0  0  0  0  0
   -5.8181   14.6100   -1.5845 C   0  0  0  0  0  0  0  0  0  0  0  0
   -3.7073   14.6675    1.5583 N   0  0  0  0  0  0  0  0  0  0  0  0
   -1.0171   15.2278   -0.8691 N   0  0  0  0  0  0  0  0  0  0  0  0
   -1.4486   14.9817    1.8389 O   0  0  0  0  0  0  0  0  0  0  0  0
   -5.3432   14.7800   -2.8341 F   0  0  0  0  0  0  0  0  0  0  0  0
   -6.4430   13.4174   -1.5349 F   0  0  0  0  0  0  0  0  0  0  0  0
   -6.7345   15.5704   -1.3524 F   0  0  0  0  0  0  0  0  0  0  0  0
   -3.3130   14.9902   -2.2217 H   0  0  0  0  0  0  0  0  0  0  0  0
   -6.2504   13.2335    1.6235 H   0  0  0  0  0  0  0  0  0  0  0  0
   -6.9401   14.7364    0.9719 H   0  0  0  0  0  0  0  0  0  0  0  0
   -6.0389   14.7665    2.4983 H   0  0  0  0  0  0  0  0  0  0  0  0
   -3.8373   14.5756    2.5621 H   0  0  0  0  0  0  0  0  0  0  0  0
   -0.8863   15.3147   -1.8541 H   0  0  0  0  0  0  0  0  0  0  0  0
   -0.2634   15.2913   -0.2194 H   0  0  0  0  0  0  0  0  0  0  0  0
  1  2  1  0  0  0  0
  1  3  2  0  0  0  0
  2  4  2  0  0  0  0
  2  7  1  0  0  0  0
  3  5  1  0  0  0  0
  3  9  1  0  0  0  0
  4  6  1  0  0  0  0
  4  8  1  0  0  0  0
  5  8  1  0  0  0  0
  5 10  2  0  0  0  0
  7 11  1  0  0  0  0
  7 12  1  0  0  0  0
  7 13  1  0  0  0  0
  1 14  1  0  0  0  0
  6 15  1  0  0  0  0
  6 16  1  0  0  0  0
  6 17  1  0  0  0  0
  8 18  1  0  0  0  0
  9 19  1  0  0  0  0
  9 20  1  0  0  0  0
M  END
> <HYBRID receptor title>
5S18(A) > WOY(A-201)

> <HYBRID receptor filename>
experiments/data/docking/5s18.oedu

> <HYBRID Chemgauss4 score>
-7.288005

> <HYBRID receptor title>
5S18(A) > WOY(A-201)

> <HYBRID receptor filename>
experiments/data/docking/5s18.oedu

> <Dock Type>
Hybrid

$$$$
MOL0105
  -OEChem-07032415493D

 16 16  0     0  0  0  0  0  0999 V2000
   -2.2364   14.9829   -0.3429 C   0  0  0  0  0  0  0  0  0  0  0  0
   -3.5699   15.0512   -0.3010 C   0  0  0  0  0  0  0  0  0  0  0  0
   -1.5028   14.9262    0.9361 C   0  0  0  0  0  0  0  0  0  0  0  0
   -4.2314   15.0658    1.0359 C   0  0  0  0  0  0  0  0  0  0  0  0
    0.0015   14.8499    0.8715 C   0  0  0  0  0  0  0  0  0  0  0  0
   -2.0565   14.9380    2.1047 N   0  0  0  0  0  0  0  0  0  0  0  0
   -3.4072   15.0067    2.1363 N   0  0  0  0  0  0  0  0  0  0  0  0
   -4.3867   15.1094   -1.3910 N   0  0  0  0  0  0  0  0  0  0  0  0
   -5.4568   15.1279    1.1300 O   0  0  0  0  0  0  0  0  0  0  0  0
    0.4204   14.8474   -0.4070 F   0  0  0  0  0  0  0  0  0  0  0  0
    0.5599   15.9024    1.4961 F   0  0  0  0  0  0  0  0  0  0  0  0
    0.4442   13.7254    1.4629 F   0  0  0  0  0  0  0  0  0  0  0  0
   -1.6855   14.9683   -1.2754 H   0  0  0  0  0  0  0  0  0  0  0  0
   -3.8039   15.0134    3.0707 H   0  0  0  0  0  0  0  0  0  0  0  0
   -3.9742   15.1014   -2.2989 H   0  0  0  0  0  0  0  0  0  0  0  0
   -5.3721   15.1582   -1.2484 H   0  0  0  0  0  0  0  0  0  0  0  0
  1  2  2  0  0  0  0
  1  3  1  0  0  0  0
  2  4  1  0  0  0  0
  2  8  1  0  0  0  0
  3  5  1  0  0  0  0
  3  6  2  0  0  0  0
  4  7  1  0  0  0  0
  4  9  2  0  0  0  0
  5 10  1  0  0  0  0
  5 11  1  0  0  0  0
  5 12  1  0  0  0  0
  6  7  1  0  0  0  0
  1 13  1  0  0  0  0
  7 14  1  0  0  0  0
  8 15  1  0  0  0  0
  8 16  1  0  0  0  0
M  END
> <HYBRID receptor title>
5S18(A) > WOY(A-201)

> <HYBRID receptor filename>
experiments/data/docking/5s18.oedu

> <HYBRID Chemgauss4 score>
-7.278605

> <HYBRID receptor title>
5S18(A) > WOY(A-201)

> <HYBRID receptor filename>
experiments/data/docking/5s18.oedu

> <Dock Type>
Hybrid

$$$$
MOL0227
  -OEChem-07032415493D

 19 19  0     0  0  0  0  0  0999 V2000
   -3.1846   14.4958   -1.1963 C   0  0  0  0  0  0  0  0  0  0  0  0
   -4.6735   14.6261    0.6864 C   0  0  0  0  0  0  0  0  0  0  0  0
   -2.1004   14.5308   -0.4052 C   0  0  0  0  0  0  0  0  0  0  0  0
   -4.5253   14.5442   -0.6439 C   0  0  0  0  0  0  0  0  0  0  0  0
   -2.2728   14.6223    1.0785 C   0  0  0  0  0  0  0  0  0  0  0  0
   -0.7857   14.4759   -1.0502 C   0  0  0  0  0  0  0  0  0  0  0  0
   -5.6754   14.4989   -1.5993 C   0  0  0  0  0  0  0  0  0  0  0  0
   -3.5850   14.6640    1.5210 N   0  0  0  0  0  0  0  0  0  0  0  0
    0.2620   14.5173   -0.1609 N   0  0  0  0  0  0  0  0  0  0  0  0
   -1.3005   14.6558    1.8289 O   0  0  0  0  0  0  0  0  0  0  0  0
   -0.6680   14.4009   -2.2707 O   0  0  0  0  0  0  0  0  0  0  0  0
   -5.2428   14.4165   -2.8751 F   0  0  0  0  0  0  0  0  0  0  0  0
   -6.4658   13.4310   -1.3626 F   0  0  0  0  0  0  0  0  0  0  0  0
   -6.4381   15.6073   -1.4932 F   0  0  0  0  0  0  0  0  0  0  0  0
   -3.0943   14.4295   -2.2770 H   0  0  0  0  0  0  0  0  0  0  0  0
   -5.6396   14.6668    1.1743 H   0  0  0  0  0  0  0  0  0  0  0  0
   -3.7509   14.7263    2.5212 H   0  0  0  0  0  0  0  0  0  0  0  0
    0.0708   14.5800    0.8338 H   0  0  0  0  0  0  0  0  0  0  0  0
    1.2234   14.4862   -0.4839 H   0  0  0  0  0  0  0  0  0  0  0  0
  1  3  2  0  0  0  0
  1  4  1  0  0  0  0
  2  4  2  0  0  0  0
  2  8  1  0  0  0  0
  3  5  1  0  0  0  0
  3  6  1  0  0  0  0
  4  7  1  0  0  0  0
  5  8  1  0  0  0  0
  5 10  2  0  0  0  0
  6  9  1  0  0  0  0
  6 11  2  0  0  0  0
  7 12  1  0  0  0  0
  7 13  1  0  0  0  0
  7 14  1  0  0  0  0
  1 15  1  0  0  0  0
  2 16  1  0  0  0  0
  8 17  1  0  0  0  0
  9 18  1  0  0  0  0
  9 19  1  0  0  0  0
M  END
> <HYBRID receptor title>
5S18(A) > WOY(A-201)

> <HYBRID receptor filename>
experiments/data/docking/5s18.oedu

> <HYBRID Chemgauss4 score>
-7.278579

> <HYBRID receptor title>
5S18(A) > WOY(A-201)

> <HYBRID receptor filename>
experiments/data/docking/5s18.oedu

> <Dock Type>
Hybrid

$$$$
MOL0269
  -OEChem-07032415493D

 33 34  0     1  0  0  0  0  0999 V2000
   -4.3643   14.9743    0.8408 C   0  0  0  0  0  0  0  0  0  0  0  0
   -2.7819   14.6458   -0.9578 C   0  0  0  0  0  0  0  0  0  0  0  0
   -4.1702   14.7671   -0.4718 C   0  0  0  0  0  0  0  0  0  0  0  0
   -1.7308   14.7408   -0.1076 C   0  0  0  0  0  0  0  0  0  0  0  0
   -2.0018   14.9751    1.3578 C   0  0  0  0  0  0  0  0  0  0  0  0
   -5.7929   15.8058   -2.0213 C   0  0  0  0  0  0  0  0  0  0  0  0
   -5.8705   13.4206   -1.6613 C   0  0  0  0  0  0  0  0  0  0  0  0
   -7.0968   15.2708   -2.6199 C   0  0  1  0  0  0  0  0  0  0  0  0
   -6.7937   13.7771   -2.8206 C   0  0  1  0  0  0  0  0  0  0  0  0
   -8.2745   15.4895   -1.6727 C   0  0  0  0  0  0  0  0  0  0  0  0
   -2.6010   14.4122   -2.4402 C   0  0  0  0  0  0  0  0  0  0  0  0
   -3.3267   15.0747    1.7216 N   0  0  0  0  0  0  0  0  0  0  0  0
   -5.2097   14.6713   -1.3265 N   0  0  3  0  0  0  0  0  0  0  0  0
   -0.4034   14.6483   -0.4206 N   0  0  0  0  0  0  0  0  0  0  0  0
   -1.0802   15.0690    2.1674 O   0  0  0  0  0  0  0  0  0  0  0  0
   -6.0815   13.5872   -4.0396 O   0  0  0  0  0  0  0  0  0  0  0  0
   -3.7946   14.3580   -3.0556 F   0  0  0  0  0  0  0  0  0  0  0  0
   -1.8835   15.4057   -2.9917 F   0  0  0  0  0  0  0  0  0  0  0  0
   -1.9574   13.2524   -2.6575 F   0  0  0  0  0  0  0  0  0  0  0  0
   -5.3510   15.0745    1.2787 H   0  0  0  0  0  0  0  0  0  0  0  0
   -5.1320   16.1879   -2.8107 H   0  0  0  0  0  0  0  0  0  0  0  0
   -5.9811   16.6193   -1.3071 H   0  0  0  0  0  0  0  0  0  0  0  0
   -6.4466   13.0246   -0.8176 H   0  0  0  0  0  0  0  0  0  0  0  0
   -5.1328   12.6634   -1.9519 H   0  0  0  0  0  0  0  0  0  0  0  0
   -7.3106   15.7466   -3.5630 H   0  0  0  0  0  0  0  0  0  0  0  0
   -7.6832   13.1642   -2.8225 H   0  0  0  0  0  0  0  0  0  0  0  0
   -8.0763   15.0143   -0.7110 H   0  0  0  0  0  0  0  0  0  0  0  0
   -9.1827   15.0593   -2.0970 H   0  0  0  0  0  0  0  0  0  0  0  0
   -8.4339   16.5572   -1.5110 H   0  0  0  0  0  0  0  0  0  0  0  0
   -3.5536   15.2325    2.6991 H   0  0  0  0  0  0  0  0  0  0  0  0
   -0.1493   14.4942   -1.3707 H   0  0  0  0  0  0  0  0  0  0  0  0
    0.2644   14.7381    0.3116 H   0  0  0  0  0  0  0  0  0  0  0  0
   -6.6873   13.8197   -4.7640 H   0  0  0  0  0  0  0  0  0  0  0  0
  1  3  2  0  0  0  0
  1 12  1  0  0  0  0
  2  3  1  0  0  0  0
  2  4  2  0  0  0  0
  2 11  1  0  0  0  0
  3 13  1  0  0  0  0
  4  5  1  0  0  0  0
  4 14  1  0  0  0  0
  5 12  1  0  0  0  0
  5 15  2  0  0  0  0
  6  8  1  0  0  0  0
  6 13  1  0  0  0  0
  7  9  1  0  0  0  0
  7 13  1  0  0  0  0
  8  9  1  0  0  0  0
  8 10  1  0  0  0  0
  9 16  1  0  0  0  0
 11 17  1  0  0  0  0
 11 18  1  0  0  0  0
 11 19  1  0  0  0  0
  1 20  1  0  0  0  0
  6 21  1  0  0  0  0
  6 22  1  0  0  0  0
  7 23  1  0  0  0  0
  7 24  1  0  0  0  0
  8 25  1  0  0  0  0
  9 26  1  0  0  0  0
 10 27  1  0  0  0  0
 10 28  1  0  0  0  0
 10 29  1  0  0  0  0
 12 30  1  0  0  0  0
 14 31  1  0  0  0  0
 14 32  1  0  0  0  0
 16 33  1  0  0  0  0
M  END
> <HYBRID receptor title>
5S18(A) > WOY(A-201)

> <HYBRID receptor filename>
experiments/data/docking/5s18.oedu

> <HYBRID Chemgauss4 score>
-7.277351

> <HYBRID receptor title>
5S18(A) > WOY(A-201)

> <HYBRID receptor filename>
experiments/data/docking/5s18.oedu

> <Dock Type>
Hybrid

$$$$
MOL0394
  -OEChem-07032415493D

 35 35  0     0  0  0  0  0  0999 V2000
   -3.3026   14.7001   -1.1567 C   0  0  0  0  0  0  0  0  0  0  0  0
   -4.7968   14.8804    0.7118 C   0  0  0  0  0  0  0  0  0  0  0  0
   -4.6440   14.7922   -0.6165 C   0  0  0  0  0  0  0  0  0  0  0  0
   -2.2080   14.6995   -0.3764 C   0  0  0  0  0  0  0  0  0  0  0  0
   -2.4004   14.7994    1.1137 C   0  0  0  0  0  0  0  0  0  0  0  0
    1.4444   12.7061   -3.1596 C   0  0  0  0  0  0  0  0  0  0  0  0
   -0.1368   16.1557   -3.2716 C   0  0  0  0  0  0  0  0  0  0  0  0
   -1.4223   12.6204   -2.1173 C   0  0  0  0  0  0  0  0  0  0  0  0
    0.9215   13.5171   -1.9783 C   0  0  0  0  0  0  0  0  0  0  0  0
   -0.9164   14.8464   -3.2341 C   0  0  0  0  0  0  0  0  0  0  0  0
   -5.7883   14.7836   -1.5794 C   0  0  0  0  0  0  0  0  0  0  0  0
   -0.5766   13.9059   -2.0509 C   0  0  0  0  0  0  0  0  0  0  0  0
   -3.7126   14.8840    1.5498 N   0  0  0  0  0  0  0  0  0  0  0  0
   -0.9436   14.6169   -0.8137 N   0  0  0  0  0  0  0  0  0  0  0  0
   -1.4378   14.8037    1.8788 O   0  0  0  0  0  0  0  0  0  0  0  0
   -5.3503   14.6864   -2.8524 F   0  0  0  0  0  0  0  0  0  0  0  0
   -6.6148   13.7422   -1.3478 F   0  0  0  0  0  0  0  0  0  0  0  0
   -6.5155   15.9163   -1.4792 F   0  0  0  0  0  0  0  0  0  0  0  0
   -3.2020   14.6299   -2.2365 H   0  0  0  0  0  0  0  0  0  0  0  0
   -5.7633   14.9526    1.1950 H   0  0  0  0  0  0  0  0  0  0  0  0
    0.8570   11.7887   -3.2676 H   0  0  0  0  0  0  0  0  0  0  0  0
    1.3608   13.2609   -4.0978 H   0  0  0  0  0  0  0  0  0  0  0  0
    2.4897   12.4156   -3.0189 H   0  0  0  0  0  0  0  0  0  0  0  0
    0.9433   15.9832   -3.2779 H   0  0  0  0  0  0  0  0  0  0  0  0
   -0.3824   16.7970   -2.4213 H   0  0  0  0  0  0  0  0  0  0  0  0
   -0.3858   16.7095   -4.1827 H   0  0  0  0  0  0  0  0  0  0  0  0
   -2.4932   12.8471   -2.1701 H   0  0  0  0  0  0  0  0  0  0  0  0
   -1.2600   11.9904   -1.2340 H   0  0  0  0  0  0  0  0  0  0  0  0
   -1.1647   12.0155   -2.9926 H   0  0  0  0  0  0  0  0  0  0  0  0
    1.5308   14.4283   -1.8980 H   0  0  0  0  0  0  0  0  0  0  0  0
    1.1150   12.9523   -1.0582 H   0  0  0  0  0  0  0  0  0  0  0  0
   -1.9879   15.0864   -3.2294 H   0  0  0  0  0  0  0  0  0  0  0  0
   -0.7350   14.3212   -4.1826 H   0  0  0  0  0  0  0  0  0  0  0  0
   -3.8809   14.9527    2.5492 H   0  0  0  0  0  0  0  0  0  0  0  0
   -0.2001   15.0442   -0.3069 H   0  0  0  0  0  0  0  0  0  0  0  0
  1  3  1  0  0  0  0
  1  4  2  0  0  0  0
  2  3  2  0  0  0  0
  2 13  1  0  0  0  0
  3 11  1  0  0  0  0
  4  5  1  0  0  0  0
  4 14  1  0  0  0  0
  5 13  1  0  0  0  0
  5 15  2  0  0  0  0
  6  9  1  0  0  0  0
  7 10  1  0  0  0  0
  8 12  1  0  0  0  0
  9 12  1  0  0  0  0
 10 12  1  0  0  0  0
 11 16  1  0  0  0  0
 11 17  1  0  0  0  0
 11 18  1  0  0  0  0
 12 14  1  0  0  0  0
  1 19  1  0  0  0  0
  2 20  1  0  0  0  0
  6 21  1  0  0  0  0
  6 22  1  0  0  0  0
  6 23  1  0  0  0  0
  7 24  1  0  0  0  0
  7 25  1  0  0  0  0
  7 26  1  0  0  0  0
  8 27  1  0  0  0  0
  8 28  1  0  0  0  0
  8 29  1  0  0  0  0
  9 30  1  0  0  0  0
  9 31  1  0  0  0  0
 10 32  1  0  0  0  0
 10 33  1  0  0  0  0
 13 34  1  0  0  0  0
 14 35  1  0  0  0  0
M  END
> <HYBRID receptor title>
5S18(A) > WOY(A-201)

> <HYBRID receptor filename>
experiments/data/docking/5s18.oedu

> <HYBRID Chemgauss4 score>
-7.273989

> <HYBRID receptor title>
5S18(A) > WOY(A-201)

> <HYBRID receptor filename>
experiments/data/docking/5s18.oedu

> <Dock Type>
Hybrid

$$$$
MOL0158
  -OEChem-07032415493D

 23 23  0     0  0  0  0  0  0999 V2000
   -2.4069   14.7123   -0.9954 C   0  0  0  0  0  0  0  0  0  0  0  0
   -4.1460   14.8509    0.6517 C   0  0  0  0  0  0  0  0  0  0  0  0
   -3.8117   14.7439   -0.6415 C   0  0  0  0  0  0  0  0  0  0  0  0
   -1.4286   14.7857   -0.0765 C   0  0  0  0  0  0  0  0  0  0  0  0
   -1.8244   14.9057    1.3714 C   0  0  0  0  0  0  0  0  0  0  0  0
    0.3865   14.6500   -1.6778 C   0  0  0  0  0  0  0  0  0  0  0  0
    2.4036   14.5435   -2.9226 C   0  0  0  0  0  0  0  0  0  0  0  0
   -4.8145   14.6548   -1.7476 C   0  0  0  0  0  0  0  0  0  0  0  0
   -3.1859   14.9293    1.6263 N   0  0  0  0  0  0  0  0  0  0  0  0
   -0.1039   14.7570   -0.3902 N   0  0  0  0  0  0  0  0  0  0  0  0
   -0.9721   14.9767    2.2548 O   0  0  0  0  0  0  0  0  0  0  0  0
   -0.2873   14.5677   -2.7001 O   0  0  0  0  0  0  0  0  0  0  0  0
    1.7530   14.6492   -1.6504 O   0  0  0  0  0  0  0  0  0  0  0  0
   -4.2051   14.5550   -2.9478 F   0  0  0  0  0  0  0  0  0  0  0  0
   -5.6115   13.5759   -1.5996 F   0  0  0  0  0  0  0  0  0  0  0  0
   -5.6042   15.7490   -1.7760 F   0  0  0  0  0  0  0  0  0  0  0  0
   -2.1612   14.6251   -2.0506 H   0  0  0  0  0  0  0  0  0  0  0  0
   -5.1712   14.8815    0.9997 H   0  0  0  0  0  0  0  0  0  0  0  0
    3.4875   14.5527   -2.7808 H   0  0  0  0  0  0  0  0  0  0  0  0
    2.1083   13.6042   -3.3962 H   0  0  0  0  0  0  0  0  0  0  0  0
    2.1016   15.3795   -3.5577 H   0  0  0  0  0  0  0  0  0  0  0  0
   -3.5007   15.0091    2.5888 H   0  0  0  0  0  0  0  0  0  0  0  0
    0.5673   14.8181    0.3714 H   0  0  0  0  0  0  0  0  0  0  0  0
  1  3  1  0  0  0  0
  1  4  2  0  0  0  0
  2  3  2  0  0  0  0
  2  9  1  0  0  0  0
  3  8  1  0  0  0  0
  4  5  1  0  0  0  0
  4 10  1  0  0  0  0
  5  9  1  0  0  0  0
  5 11  2  0  0  0  0
  6 10  1  0  0  0  0
  6 12  2  0  0  0  0
  6 13  1  0  0  0  0
  7 13  1  0  0  0  0
  8 14  1  0  0  0  0
  8 15  1  0  0  0  0
  8 16  1  0  0  0  0
  1 17  1  0  0  0  0
  2 18  1  0  0  0  0
  7 19  1  0  0  0  0
  7 20  1  0  0  0  0
  7 21  1  0  0  0  0
  9 22  1  0  0  0  0
 10 23  1  0  0  0  0
M  END
> <HYBRID receptor title>
5S18(A) > WOY(A-201)

> <HYBRID receptor filename>
experiments/data/docking/5s18.oedu

> <HYBRID Chemgauss4 score>
-7.269514

> <HYBRID receptor title>
5S18(A) > WOY(A-201)

> <HYBRID receptor filename>
experiments/data/docking/5s18.oedu

> <Dock Type>
Hybrid

$$$$
MOL0172
  -OEChem-07032415493D

 17 17  0     0  0  0  0  0  0999 V2000
   -3.7563   14.5854   -1.2278 C   0  0  0  0  0  0  0  0  0  0  0  0
   -5.0737   14.3908   -0.6442 C   0  0  0  0  0  0  0  0  0  0  0  0
   -2.6529   14.7963   -0.4895 C   0  0  0  0  0  0  0  0  0  0  0  0
   -5.1771   14.4262    0.6926 C   0  0  0  0  0  0  0  0  0  0  0  0
   -2.8002   14.8312    1.0068 C   0  0  0  0  0  0  0  0  0  0  0  0
   -6.1946   14.1671   -1.6156 C   0  0  0  0  0  0  0  0  0  0  0  0
   -4.0827   14.6382    1.4892 N   0  0  0  0  0  0  0  0  0  0  0  0
   -1.3965   14.9833   -0.9840 N   0  0  0  0  0  0  0  0  0  0  0  0
   -1.8291   15.0208    1.7369 O   0  0  0  0  0  0  0  0  0  0  0  0
   -6.3019   15.2196   -2.4574 F   0  0  0  0  0  0  0  0  0  0  0  0
   -5.9473   13.0749   -2.3715 F   0  0  0  0  0  0  0  0  0  0  0  0
   -6.6236   14.2219    1.5878 Cl  0  0  0  0  0  0  0  0  0  0  0  0
   -3.6827   14.5547   -2.3120 H   0  0  0  0  0  0  0  0  0  0  0  0
   -7.1317   14.0333   -1.0840 H   0  0  0  0  0  0  0  0  0  0  0  0
   -4.2212   14.6546    2.4952 H   0  0  0  0  0  0  0  0  0  0  0  0
   -1.2636   14.9659   -1.9722 H   0  0  0  0  0  0  0  0  0  0  0  0
   -0.6473   15.1321   -0.3434 H   0  0  0  0  0  0  0  0  0  0  0  0
  1  2  1  0  0  0  0
  1  3  2  0  0  0  0
  2  4  2  0  0  0  0
  2  6  1  0  0  0  0
  3  5  1  0  0  0  0
  3  8  1  0  0  0  0
  4  7  1  0  0  0  0
  4 12  1  0  0  0  0
  5  7  1  0  0  0  0
  5  9  2  0  0  0  0
  6 10  1  0  0  0  0
  6 11  1  0  0  0  0
  1 13  1  0  0  0  0
  6 14  1  0  0  0  0
  7 15  1  0  0  0  0
  8 16  1  0  0  0  0
  8 17  1  0  0  0  0
M  END
> <HYBRID receptor title>
5S18(A) > WOY(A-201)

> <HYBRID receptor filename>
experiments/data/docking/5s18.oedu

> <HYBRID Chemgauss4 score>
-7.256481

> <HYBRID receptor title>
5S18(A) > WOY(A-201)

> <HYBRID receptor filename>
experiments/data/docking/5s18.oedu

> <Dock Type>
Hybrid

$$$$
MOL0237
  -OEChem-07032415493D

 23 23  0     0  0  0  0  0  0999 V2000
   -4.6412   14.7918    0.6127 C   0  0  0  0  0  0  0  0  0  0  0  0
   -4.4797   14.6324   -0.7059 C   0  0  0  0  0  0  0  0  0  0  0  0
   -3.1410   14.5849   -1.2869 C   0  0  0  0  0  0  0  0  0  0  0  0
   -2.0499   14.7022   -0.4924 C   0  0  0  0  0  0  0  0  0  0  0  0
   -2.2511   14.8814    0.9959 C   0  0  0  0  0  0  0  0  0  0  0  0
   -5.7200   14.5147   -1.4821 C   0  0  0  0  0  0  0  0  0  0  0  0
   -7.2601   12.9246   -2.2848 C   0  0  0  0  0  0  0  0  0  0  0  0
   -3.0509   14.4033   -2.7809 C   0  0  0  0  0  0  0  0  0  0  0  0
   -3.5586   14.9125    1.4382 N   0  0  0  0  0  0  0  0  0  0  0  0
   -0.7400   14.6777   -0.8812 N   0  0  0  0  0  0  0  0  0  0  0  0
   -1.2898   14.9916    1.7561 O   0  0  0  0  0  0  0  0  0  0  0  0
   -6.3065   15.4693   -1.9620 O   0  0  0  0  0  0  0  0  0  0  0  0
   -6.0615   13.2043   -1.5531 O   0  0  0  0  0  0  0  0  0  0  0  0
   -4.2797   14.3153   -3.3216 F   0  0  0  0  0  0  0  0  0  0  0  0
   -2.4133   15.4420   -3.3502 F   0  0  0  0  0  0  0  0  0  0  0  0
   -2.3761   13.2787   -3.0811 F   0  0  0  0  0  0  0  0  0  0  0  0
   -5.6045   14.8356    1.1070 H   0  0  0  0  0  0  0  0  0  0  0  0
   -7.4465   11.8476   -2.2831 H   0  0  0  0  0  0  0  0  0  0  0  0
   -8.0973   13.4378   -1.8055 H   0  0  0  0  0  0  0  0  0  0  0  0
   -7.1542   13.2851   -3.3106 H   0  0  0  0  0  0  0  0  0  0  0  0
   -3.7253   15.0319    2.4330 H   0  0  0  0  0  0  0  0  0  0  0  0
   -0.5335   14.5623   -1.8483 H   0  0  0  0  0  0  0  0  0  0  0  0
   -0.0359   14.7761   -0.1848 H   0  0  0  0  0  0  0  0  0  0  0  0
  1  2  2  0  0  0  0
  1  9  1  0  0  0  0
  2  3  1  0  0  0  0
  2  6  1  0  0  0  0
  3  4  2  0  0  0  0
  3  8  1  0  0  0  0
  4  5  1  0  0  0  0
  4 10  1  0  0  0  0
  5  9  1  0  0  0  0
  5 11  2  0  0  0  0
  6 12  2  0  0  0  0
  6 13  1  0  0  0  0
  7 13  1  0  0  0  0
  8 14  1  0  0  0  0
  8 15  1  0  0  0  0
  8 16  1  0  0  0  0
  1 17  1  0  0  0  0
  7 18  1  0  0  0  0
  7 19  1  0  0  0  0
  7 20  1  0  0  0  0
  9 21  1  0  0  0  0
 10 22  1  0  0  0  0
 10 23  1  0  0  0  0
M  END
> <HYBRID receptor title>
5S18(A) > WOY(A-201)

> <HYBRID receptor filename>
experiments/data/docking/5s18.oedu

> <HYBRID Chemgauss4 score>
-7.253392

> <HYBRID receptor title>
5S18(A) > WOY(A-201)

> <HYBRID receptor filename>
experiments/data/docking/5s18.oedu

> <Dock Type>
Hybrid

$$$$
MOL0155
  -OEChem-07032415493D

 20 20  0     0  0  0  0  0  0999 V2000
   -4.5909   14.7138    0.9907 C   0  0  0  0  0  0  0  0  0  0  0  0
   -4.4538   14.6479   -0.3414 C   0  0  0  0  0  0  0  0  0  0  0  0
   -3.1077   14.7263   -0.9254 C   0  0  0  0  0  0  0  0  0  0  0  0
   -2.0168   14.8636   -0.1337 C   0  0  0  0  0  0  0  0  0  0  0  0
   -2.2101   14.9345    1.3624 C   0  0  0  0  0  0  0  0  0  0  0  0
   -3.0159   14.6462   -2.4303 C   0  0  0  0  0  0  0  0  0  0  0  0
   -5.6608   14.4962   -1.2231 C   0  0  0  0  0  0  0  0  0  0  0  0
   -3.5105   14.8519    1.8138 N   0  0  0  0  0  0  0  0  0  0  0  0
   -0.7124   14.9494   -0.5328 N   0  0  0  0  0  0  0  0  0  0  0  0
   -1.2494   15.0588    2.1210 O   0  0  0  0  0  0  0  0  0  0  0  0
   -6.7877   14.4450   -0.4864 F   0  0  0  0  0  0  0  0  0  0  0  0
   -5.7675   15.5322   -2.0774 F   0  0  0  0  0  0  0  0  0  0  0  0
   -5.5841   13.3634   -1.9486 F   0  0  0  0  0  0  0  0  0  0  0  0
   -5.5504   14.6627    1.4913 H   0  0  0  0  0  0  0  0  0  0  0  0
   -3.0797   15.6477   -2.8415 H   0  0  0  0  0  0  0  0  0  0  0  0
   -3.8331   14.0384   -2.8031 H   0  0  0  0  0  0  0  0  0  0  0  0
   -2.0697   14.1914   -2.7026 H   0  0  0  0  0  0  0  0  0  0  0  0
   -3.6837   14.8954    2.8138 H   0  0  0  0  0  0  0  0  0  0  0  0
   -0.5101   14.9096   -1.5068 H   0  0  0  0  0  0  0  0  0  0  0  0
   -0.0083   15.0489    0.1634 H   0  0  0  0  0  0  0  0  0  0  0  0
  1  2  2  0  0  0  0
  1  8  1  0  0  0  0
  2  3  1  0  0  0  0
  2  7  1  0  0  0  0
  3  4  2  0  0  0  0
  3  6  1  0  0  0  0
  4  5  1  0  0  0  0
  4  9  1  0  0  0  0
  5  8  1  0  0  0  0
  5 10  2  0  0  0  0
  7 11  1  0  0  0  0
  7 12  1  0  0  0  0
  7 13  1  0  0  0  0
  1 14  1  0  0  0  0
  6 15  1  0  0  0  0
  6 16  1  0  0  0  0
  6 17  1  0  0  0  0
  8 18  1  0  0  0  0
  9 19  1  0  0  0  0
  9 20  1  0  0  0  0
M  END
> <HYBRID receptor title>
5S18(A) > WOY(A-201)

> <HYBRID receptor filename>
experiments/data/docking/5s18.oedu

> <HYBRID Chemgauss4 score>
-7.252482

> <HYBRID receptor title>
5S18(A) > WOY(A-201)

> <HYBRID receptor filename>
experiments/data/docking/5s18.oedu

> <Dock Type>
Hybrid

$$$$
MOL0380
  -OEChem-07032415493D

 26 26  0     0  0  0  0  0  0999 V2000
   -4.4340   15.0635    0.6737 C   0  0  0  0  0  0  0  0  0  0  0  0
   -4.1286   14.8265   -0.6102 C   0  0  0  0  0  0  0  0  0  0  0  0
   -2.7248   14.5989   -0.9799 C   0  0  0  0  0  0  0  0  0  0  0  0
   -1.7484   14.6273   -0.0409 C   0  0  0  0  0  0  0  0  0  0  0  0
   -2.1302   14.8974    1.3951 C   0  0  0  0  0  0  0  0  0  0  0  0
   -6.2078   13.6809   -1.3616 C   0  0  0  0  0  0  0  0  0  0  0  0
   -5.9043   16.1489   -1.7323 C   0  0  0  0  0  0  0  0  0  0  0  0
   -5.2080   14.7947   -1.6547 C   0  0  0  0  0  0  0  0  0  0  0  0
   -2.4422   14.3369   -2.4397 C   0  0  0  0  0  0  0  0  0  0  0  0
   -3.4720   15.0980    1.6419 N   0  0  0  0  0  0  0  0  0  0  0  0
   -0.4094   14.4349   -0.2359 N   0  0  0  0  0  0  0  0  0  0  0  0
   -1.2783   14.9326    2.2822 O   0  0  0  0  0  0  0  0  0  0  0  0
   -3.5824   14.3637   -3.1521 F   0  0  0  0  0  0  0  0  0  0  0  0
   -1.6102   15.2684   -2.9371 F   0  0  0  0  0  0  0  0  0  0  0  0
   -1.8708   13.1302   -2.5998 F   0  0  0  0  0  0  0  0  0  0  0  0
   -5.4454   15.2398    1.0199 H   0  0  0  0  0  0  0  0  0  0  0  0
   -6.7112   13.8453   -0.4019 H   0  0  0  0  0  0  0  0  0  0  0  0
   -5.6997   12.7122   -1.3092 H   0  0  0  0  0  0  0  0  0  0  0  0
   -6.9789   13.6137   -2.1384 H   0  0  0  0  0  0  0  0  0  0  0  0
   -6.3942   16.3960   -0.7841 H   0  0  0  0  0  0  0  0  0  0  0  0
   -5.1799   16.9410   -1.9491 H   0  0  0  0  0  0  0  0  0  0  0  0
   -6.6672   16.1657   -2.5190 H   0  0  0  0  0  0  0  0  0  0  0  0
   -4.7330   14.5869   -2.6193 H   0  0  0  0  0  0  0  0  0  0  0  0
   -3.7708   15.2826    2.5951 H   0  0  0  0  0  0  0  0  0  0  0  0
   -0.0854   14.2517   -1.1592 H   0  0  0  0  0  0  0  0  0  0  0  0
    0.1971   14.4845    0.5515 H   0  0  0  0  0  0  0  0  0  0  0  0
  1  2  2  0  0  0  0
  1 10  1  0  0  0  0
  2  3  1  0  0  0  0
  2  8  1  0  0  0  0
  3  4  2  0  0  0  0
  3  9  1  0  0  0  0
  4  5  1  0  0  0  0
  4 11  1  0  0  0  0
  5 10  1  0  0  0  0
  5 12  2  0  0  0  0
  6  8  1  0  0  0  0
  7  8  1  0  0  0  0
  9 13  1  0  0  0  0
  9 14  1  0  0  0  0
  9 15  1  0  0  0  0
  1 16  1  0  0  0  0
  6 17  1  0  0  0  0
  6 18  1  0  0  0  0
  6 19  1  0  0  0  0
  7 20  1  0  0  0  0
  7 21  1  0  0  0  0
  7 22  1  0  0  0  0
  8 23  1  0  0  0  0
 10 24  1  0  0  0  0
 11 25  1  0  0  0  0
 11 26  1  0  0  0  0
M  END
> <HYBRID receptor title>
5S18(A) > WOY(A-201)

> <HYBRID receptor filename>
experiments/data/docking/5s18.oedu

> <HYBRID Chemgauss4 score>
-7.239248

> <HYBRID receptor title>
5S18(A) > WOY(A-201)

> <HYBRID receptor filename>
experiments/data/docking/5s18.oedu

> <Dock Type>
Hybrid

$$$$
MOL0280
  -OEChem-07032415493D

 26 26  0     0  0  0  0  0  0999 V2000
   -0.8478   14.7364   -2.0372 C   0  0  0  0  0  0  0  0  0  0  0  0
    1.5388   14.7480   -1.7909 C   0  0  0  0  0  0  0  0  0  0  0  0
    0.4808   14.8068   -2.6112 C   0  0  0  0  0  0  0  0  0  0  0  0
   -1.0581   14.6151   -0.7151 C   0  0  0  0  0  0  0  0  0  0  0  0
    0.1434   14.5506    0.1902 C   0  0  0  0  0  0  0  0  0  0  0  0
   -4.7056   14.1587   -0.3308 C   0  0  0  0  0  0  0  0  0  0  0  0
   -3.4974   14.9953   -0.7362 C   0  0  0  0  0  0  0  0  0  0  0  0
    0.5954   14.9416   -4.0962 C   0  0  0  0  0  0  0  0  0  0  0  0
   -4.9903   14.2004    1.1572 C   0  0  0  0  0  0  0  0  0  0  0  0
    1.3771   14.6242   -0.4358 N   0  0  0  0  0  0  0  0  0  0  0  0
   -2.2794   14.5439   -0.1138 N   0  0  0  0  0  0  0  0  0  0  0  0
    0.0149   14.4397    1.4081 O   0  0  0  0  0  0  0  0  0  0  0  0
   -0.6232   14.9763   -4.6756 F   0  0  0  0  0  0  0  0  0  0  0  0
    1.2450   16.0747   -4.4360 F   0  0  0  0  0  0  0  0  0  0  0  0
    1.2746   13.9030   -4.6270 F   0  0  0  0  0  0  0  0  0  0  0  0
   -6.0604   13.4277    1.4528 F   0  0  0  0  0  0  0  0  0  0  0  0
   -3.9470   13.7438    1.8811 F   0  0  0  0  0  0  0  0  0  0  0  0
   -5.2679   15.4557    1.5694 F   0  0  0  0  0  0  0  0  0  0  0  0
   -1.6911   14.7855   -2.7208 H   0  0  0  0  0  0  0  0  0  0  0  0
    2.5634   14.7937   -2.1388 H   0  0  0  0  0  0  0  0  0  0  0  0
   -5.5875   14.5337   -0.8628 H   0  0  0  0  0  0  0  0  0  0  0  0
   -4.5608   13.1168   -0.6401 H   0  0  0  0  0  0  0  0  0  0  0  0
   -3.6368   16.0488   -0.4758 H   0  0  0  0  0  0  0  0  0  0  0  0
   -3.3449   14.9304   -1.8182 H   0  0  0  0  0  0  0  0  0  0  0  0
    2.2105   14.5839    0.1436 H   0  0  0  0  0  0  0  0  0  0  0  0
   -2.3264   14.1525    0.8123 H   0  0  0  0  0  0  0  0  0  0  0  0
  1  3  1  0  0  0  0
  1  4  2  0  0  0  0
  2  3  2  0  0  0  0
  2 10  1  0  0  0  0
  3  8  1  0  0  0  0
  4  5  1  0  0  0  0
  4 11  1  0  0  0  0
  5 10  1  0  0  0  0
  5 12  2  0  0  0  0
  6  7  1  0  0  0  0
  6  9  1  0  0  0  0
  7 11  1  0  0  0  0
  8 13  1  0  0  0  0
  8 14  1  0  0  0  0
  8 15  1  0  0  0  0
  9 16  1  0  0  0  0
  9 17  1  0  0  0  0
  9 18  1  0  0  0  0
  1 19  1  0  0  0  0
  2 20  1  0  0  0  0
  6 21  1  0  0  0  0
  6 22  1  0  0  0  0
  7 23  1  0  0  0  0
  7 24  1  0  0  0  0
 10 25  1  0  0  0  0
 11 26  1  0  0  0  0
M  END
> <HYBRID receptor title>
5S18(A) > WOY(A-201)

> <HYBRID receptor filename>
experiments/data/docking/5s18.oedu

> <HYBRID Chemgauss4 score>
-7.228003

> <HYBRID receptor title>
5S18(A) > WOY(A-201)

> <HYBRID receptor filename>
experiments/data/docking/5s18.oedu

> <Dock Type>
Hybrid

$$$$
MOL0168
  -OEChem-07032415493D

 27 28  0     0  0  0  0  0  0999 V2000
   -5.8665   14.6982   -2.0916 C   0  0  0  0  0  0  0  0  0  0  0  0
   -5.0806   15.7206   -1.4853 C   0  0  0  0  0  0  0  0  0  0  0  0
   -6.0792   13.6358   -1.2410 C   0  0  0  0  0  0  0  0  0  0  0  0
   -4.7226   15.4001   -0.1938 C   0  0  0  0  0  0  0  0  0  0  0  0
   -1.8573   14.9901   -0.9912 C   0  0  0  0  0  0  0  0  0  0  0  0
    0.4286   14.3211   -1.2803 C   0  0  0  0  0  0  0  0  0  0  0  0
   -0.7591   14.5814   -1.8436 C   0  0  0  0  0  0  0  0  0  0  0  0
   -1.7292   15.1180    0.3408 C   0  0  0  0  0  0  0  0  0  0  0  0
   -0.3868   14.8210    0.9549 C   0  0  0  0  0  0  0  0  0  0  0  0
   -3.9036   16.2035    0.7753 C   0  0  0  0  0  0  0  0  0  0  0  0
   -1.0165   14.4728   -3.3128 C   0  0  0  0  0  0  0  0  0  0  0  0
    0.6101   14.4366    0.0730 N   0  0  0  0  0  0  0  0  0  0  0  0
   -2.7205   15.4976    1.1959 N   0  0  0  0  0  0  0  0  0  0  0  0
   -0.2079   14.9201    2.1674 O   0  0  0  0  0  0  0  0  0  0  0  0
   -2.2949   14.7911   -3.6061 F   0  0  0  0  0  0  0  0  0  0  0  0
   -0.2147   15.3026   -4.0126 F   0  0  0  0  0  0  0  0  0  0  0  0
   -0.7932   13.2165   -3.7531 F   0  0  0  0  0  0  0  0  0  0  0  0
   -5.3332   13.8727    0.2823 S   0  0  0  0  0  0  0  0  0  0  0  0
   -6.2570   14.7395   -3.1001 H   0  0  0  0  0  0  0  0  0  0  0  0
   -4.7936   16.6423   -1.9755 H   0  0  0  0  0  0  0  0  0  0  0  0
   -6.6360   12.7312   -1.4406 H   0  0  0  0  0  0  0  0  0  0  0  0
   -2.8115   15.1957   -1.4690 H   0  0  0  0  0  0  0  0  0  0  0  0
    1.2987   14.0107   -1.8455 H   0  0  0  0  0  0  0  0  0  0  0  0
   -3.5892   17.1499    0.3230 H   0  0  0  0  0  0  0  0  0  0  0  0
   -4.4836   16.4481    1.6714 H   0  0  0  0  0  0  0  0  0  0  0  0
    1.5293   14.2281    0.4517 H   0  0  0  0  0  0  0  0  0  0  0  0
   -2.6159   15.2678    2.1702 H   0  0  0  0  0  0  0  0  0  0  0  0
  1  2  1  0  0  0  0
  1  3  2  0  0  0  0
  2  4  2  0  0  0  0
  3 18  1  0  0  0  0
  4 10  1  0  0  0  0
  4 18  1  0  0  0  0
  5  7  1  0  0  0  0
  5  8  2  0  0  0  0
  6  7  2  0  0  0  0
  6 12  1  0  0  0  0
  7 11  1  0  0  0  0
  8  9  1  0  0  0  0
  8 13  1  0  0  0  0
  9 12  1  0  0  0  0
  9 14  2  0  0  0  0
 10 13  1  0  0  0  0
 11 15  1  0  0  0  0
 11 16  1  0  0  0  0
 11 17  1  0  0  0  0
  1 19  1  0  0  0  0
  2 20  1  0  0  0  0
  3 21  1  0  0  0  0
  5 22  1  0  0  0  0
  6 23  1  0  0  0  0
 10 24  1  0  0  0  0
 10 25  1  0  0  0  0
 12 26  1  0  0  0  0
 13 27  1  0  0  0  0
M  END
> <HYBRID receptor title>
5S18(A) > WOY(A-201)

> <HYBRID receptor filename>
experiments/data/docking/5s18.oedu

> <HYBRID Chemgauss4 score>
-7.217787

> <HYBRID receptor title>
5S18(A) > WOY(A-201)

> <HYBRID receptor filename>
experiments/data/docking/5s18.oedu

> <Dock Type>
Hybrid

$$$$
MOL0295
  -OEChem-07032415493D

 29 29  0     0  0  0  0  0  0999 V2000
   -1.3365   14.9569   -1.2081 C   0  0  0  0  0  0  0  0  0  0  0  0
    1.0369   14.6056   -1.2008 C   0  0  0  0  0  0  0  0  0  0  0  0
   -0.0883   14.7491   -1.9142 C   0  0  0  0  0  0  0  0  0  0  0  0
   -1.4074   15.0114    0.1332 C   0  0  0  0  0  0  0  0  0  0  0  0
   -0.1322   14.8479    0.9170 C   0  0  0  0  0  0  0  0  0  0  0  0
   -4.9336   14.8465    0.3760 C   0  0  0  0  0  0  0  0  0  0  0  0
   -6.2725   13.6540   -2.5269 C   0  0  0  0  0  0  0  0  0  0  0  0
   -3.7474   15.7795    0.3055 C   0  0  0  0  0  0  0  0  0  0  0  0
   -6.5608   13.9073   -1.0625 C   0  0  0  0  0  0  0  0  0  0  0  0
   -0.1283   14.7063   -3.4085 C   0  0  0  0  0  0  0  0  0  0  0  0
    1.0172   14.6532    0.1686 N   0  0  0  0  0  0  0  0  0  0  0  0
   -2.5471   15.2039    0.8557 N   0  0  0  0  0  0  0  0  0  0  0  0
   -0.1333   14.8883    2.1460 O   0  0  0  0  0  0  0  0  0  0  0  0
   -5.0491   14.0043    1.2601 O   0  0  0  0  0  0  0  0  0  0  0  0
   -5.8220   15.0568   -0.6336 O   0  0  0  0  0  0  0  0  0  0  0  0
   -1.3868   14.8778   -3.8652 F   0  0  0  0  0  0  0  0  0  0  0  0
    0.6405   15.6762   -3.9466 F   0  0  0  0  0  0  0  0  0  0  0  0
    0.3204   13.5208   -3.8724 F   0  0  0  0  0  0  0  0  0  0  0  0
   -2.2366   15.0704   -1.8063 H   0  0  0  0  0  0  0  0  0  0  0  0
    2.0092   14.4469   -1.6506 H   0  0  0  0  0  0  0  0  0  0  0  0
   -6.5730   14.5100   -3.1378 H   0  0  0  0  0  0  0  0  0  0  0  0
   -5.2055   13.4652   -2.6831 H   0  0  0  0  0  0  0  0  0  0  0  0
   -6.8073   12.7652   -2.8768 H   0  0  0  0  0  0  0  0  0  0  0  0
   -3.9707   16.6844    0.8750 H   0  0  0  0  0  0  0  0  0  0  0  0
   -3.5461   16.0249   -0.7406 H   0  0  0  0  0  0  0  0  0  0  0  0
   -6.2580   13.0478   -0.4573 H   0  0  0  0  0  0  0  0  0  0  0  0
   -7.6276   14.0967   -0.9079 H   0  0  0  0  0  0  0  0  0  0  0  0
    1.8967   14.5389    0.6638 H   0  0  0  0  0  0  0  0  0  0  0  0
   -2.5444   14.9251    1.8228 H   0  0  0  0  0  0  0  0  0  0  0  0
  1  3  1  0  0  0  0
  1  4  2  0  0  0  0
  2  3  2  0  0  0  0
  2 11  1  0  0  0  0
  3 10  1  0  0  0  0
  4  5  1  0  0  0  0
  4 12  1  0  0  0  0
  5 11  1  0  0  0  0
  5 13  2  0  0  0  0
  6  8  1  0  0  0  0
  6 14  2  0  0  0  0
  6 15  1  0  0  0  0
  7  9  1  0  0  0  0
  8 12  1  0  0  0  0
  9 15  1  0  0  0  0
 10 16  1  0  0  0  0
 10 17  1  0  0  0  0
 10 18  1  0  0  0  0
  1 19  1  0  0  0  0
  2 20  1  0  0  0  0
  7 21  1  0  0  0  0
  7 22  1  0  0  0  0
  7 23  1  0  0  0  0
  8 24  1  0  0  0  0
  8 25  1  0  0  0  0
  9 26  1  0  0  0  0
  9 27  1  0  0  0  0
 11 28  1  0  0  0  0
 12 29  1  0  0  0  0
M  END
> <HYBRID receptor title>
5S18(A) > WOY(A-201)

> <HYBRID receptor filename>
experiments/data/docking/5s18.oedu

> <HYBRID Chemgauss4 score>
-7.217470

> <HYBRID receptor title>
5S18(A) > WOY(A-201)

> <HYBRID receptor filename>
experiments/data/docking/5s18.oedu

> <Dock Type>
Hybrid

$$$$
MOL0263
  -OEChem-07032415493D

 27 28  0     0  0  0  0  0  0999 V2000
   -2.3914   14.6155   -1.1191 C   0  0  0  0  0  0  0  0  0  0  0  0
   -4.1038   14.8782    0.5408 C   0  0  0  0  0  0  0  0  0  0  0  0
   -3.7866   14.7602   -0.7558 C   0  0  0  0  0  0  0  0  0  0  0  0
   -1.4054   14.5948   -0.2057 C   0  0  0  0  0  0  0  0  0  0  0  0
   -1.7819   14.7290    1.2460 C   0  0  0  0  0  0  0  0  0  0  0  0
   -8.2539   14.4036   -1.5000 C   0  0  0  0  0  0  0  0  0  0  0  0
   -7.1837   13.9377   -2.5085 C   0  0  0  0  0  0  0  0  0  0  0  0
   -7.1438   15.2200   -0.8065 C   0  0  0  0  0  0  0  0  0  0  0  0
   -6.1309   14.2082   -1.4028 C   0  0  0  0  0  0  0  0  0  0  0  0
   -4.7991   14.7696   -1.8565 C   0  0  0  0  0  0  0  0  0  0  0  0
   -3.1353   14.8633    1.5100 N   0  0  0  0  0  0  0  0  0  0  0  0
   -0.0771   14.4618   -0.4816 N   0  0  0  0  0  0  0  0  0  0  0  0
   -0.9247   14.7172    2.1275 O   0  0  0  0  0  0  0  0  0  0  0  0
   -2.1570   14.5217   -2.1761 H   0  0  0  0  0  0  0  0  0  0  0  0
   -5.1208   14.9901    0.8956 H   0  0  0  0  0  0  0  0  0  0  0  0
   -9.0813   14.9831   -1.9166 H   0  0  0  0  0  0  0  0  0  0  0  0
   -8.6586   13.5948   -0.8807 H   0  0  0  0  0  0  0  0  0  0  0  0
   -7.2668   12.8996   -2.8404 H   0  0  0  0  0  0  0  0  0  0  0  0
   -7.0990   14.5872   -3.3876 H   0  0  0  0  0  0  0  0  0  0  0  0
   -7.0470   16.2421   -1.1911 H   0  0  0  0  0  0  0  0  0  0  0  0
   -7.1935   15.2542    0.2849 H   0  0  0  0  0  0  0  0  0  0  0  0
   -5.9870   13.3357   -0.7491 H   0  0  0  0  0  0  0  0  0  0  0  0
   -4.4140   14.1840   -2.6956 H   0  0  0  0  0  0  0  0  0  0  0  0
   -4.9348   15.7985   -2.2029 H   0  0  0  0  0  0  0  0  0  0  0  0
   -3.4266   14.9562    2.4787 H   0  0  0  0  0  0  0  0  0  0  0  0
    0.2073   14.3710   -1.4331 H   0  0  0  0  0  0  0  0  0  0  0  0
    0.5711   14.4593    0.2758 H   0  0  0  0  0  0  0  0  0  0  0  0
  1  3  1  0  0  0  0
  1  4  2  0  0  0  0
  2  3  2  0  0  0  0
  2 11  1  0  0  0  0
  3 10  1  0  0  0  0
  4  5  1  0  0  0  0
  4 12  1  0  0  0  0
  5 11  1  0  0  0  0
  5 13  2  0  0  0  0
  6  7  1  0  0  0  0
  6  8  1  0  0  0  0
  7  9  1  0  0  0  0
  8  9  1  0  0  0  0
  9 10  1  0  0  0  0
  1 14  1  0  0  0  0
  2 15  1  0  0  0  0
  6 16  1  0  0  0  0
  6 17  1  0  0  0  0
  7 18  1  0  0  0  0
  7 19  1  0  0  0  0
  8 20  1  0  0  0  0
  8 21  1  0  0  0  0
  9 22  1  0  0  0  0
 10 23  1  0  0  0  0
 10 24  1  0  0  0  0
 11 25  1  0  0  0  0
 12 26  1  0  0  0  0
 12 27  1  0  0  0  0
M  END
> <HYBRID receptor title>
5S18(A) > WOY(A-201)

> <HYBRID receptor filename>
experiments/data/docking/5s18.oedu

> <HYBRID Chemgauss4 score>
-7.199070

> <HYBRID receptor title>
5S18(A) > WOY(A-201)

> <HYBRID receptor filename>
experiments/data/docking/5s18.oedu

> <Dock Type>
Hybrid

$$$$
MOL0284
  -OEChem-07032415493D

 24 24  0     0  0  0  0  0  0999 V2000
   -3.4879   14.5726   -0.9859 C   0  0  0  0  0  0  0  0  0  0  0  0
   -4.7127   14.5269    1.0767 C   0  0  0  0  0  0  0  0  0  0  0  0
   -4.7329   14.4252   -0.2593 C   0  0  0  0  0  0  0  0  0  0  0  0
   -2.3158   14.8068   -0.3707 C   0  0  0  0  0  0  0  0  0  0  0  0
   -2.3139   14.9180    1.1309 C   0  0  0  0  0  0  0  0  0  0  0  0
    0.9953   12.8400   -2.7254 C   0  0  0  0  0  0  0  0  0  0  0  0
    0.5867   14.0765   -2.4204 C   0  0  0  0  0  0  0  0  0  0  0  0
   -0.8484   14.4818   -2.3294 C   0  0  0  0  0  0  0  0  0  0  0  0
   -5.9770   14.1663   -1.0479 C   0  0  0  0  0  0  0  0  0  0  0  0
   -3.5435   14.7653    1.7504 N   0  0  0  0  0  0  0  0  0  0  0  0
   -1.1131   14.9548   -0.9949 N   0  0  0  0  0  0  0  0  0  0  0  0
   -1.2730   15.1314    1.7499 O   0  0  0  0  0  0  0  0  0  0  0  0
   -5.7107   14.1119   -2.3700 F   0  0  0  0  0  0  0  0  0  0  0  0
   -6.5456   12.9947   -0.6940 F   0  0  0  0  0  0  0  0  0  0  0  0
   -6.8884   15.1422   -0.8509 F   0  0  0  0  0  0  0  0  0  0  0  0
   -3.5275   14.4868   -2.0684 H   0  0  0  0  0  0  0  0  0  0  0  0
   -5.5978   14.4296    1.6932 H   0  0  0  0  0  0  0  0  0  0  0  0
    2.0541   12.6059   -2.7685 H   0  0  0  0  0  0  0  0  0  0  0  0
    0.2892   12.0447   -2.9366 H   0  0  0  0  0  0  0  0  0  0  0  0
    1.3370   14.8341   -2.2102 H   0  0  0  0  0  0  0  0  0  0  0  0
   -1.0961   15.2782   -3.0385 H   0  0  0  0  0  0  0  0  0  0  0  0
   -1.4953   13.6245   -2.5380 H   0  0  0  0  0  0  0  0  0  0  0  0
   -3.5806   14.8340    2.7632 H   0  0  0  0  0  0  0  0  0  0  0  0
   -0.3762   15.4219   -0.4930 H   0  0  0  0  0  0  0  0  0  0  0  0
  1  3  1  0  0  0  0
  1  4  2  0  0  0  0
  2  3  2  0  0  0  0
  2 10  1  0  0  0  0
  3  9  1  0  0  0  0
  4  5  1  0  0  0  0
  4 11  1  0  0  0  0
  5 10  1  0  0  0  0
  5 12  2  0  0  0  0
  6  7  2  0  0  0  0
  7  8  1  0  0  0  0
  8 11  1  0  0  0  0
  9 13  1  0  0  0  0
  9 14  1  0  0  0  0
  9 15  1  0  0  0  0
  1 16  1  0  0  0  0
  2 17  1  0  0  0  0
  6 18  1  0  0  0  0
  6 19  1  0  0  0  0
  7 20  1  0  0  0  0
  8 21  1  0  0  0  0
  8 22  1  0  0  0  0
 10 23  1  0  0  0  0
 11 24  1  0  0  0  0
M  END
> <HYBRID receptor title>
5S18(A) > WOY(A-201)

> <HYBRID receptor filename>
experiments/data/docking/5s18.oedu

> <HYBRID Chemgauss4 score>
-7.197662

> <HYBRID receptor title>
5S18(A) > WOY(A-201)

> <HYBRID receptor filename>
experiments/data/docking/5s18.oedu

> <Dock Type>
Hybrid

$$$$
MOL0406
  -OEChem-07032415493D

 25 25  0     0  0  0  0  0  0999 V2000
   -4.0891   15.0140   -1.1131 C   0  0  0  0  0  0  0  0  0  0  0  0
   -5.2553   14.6198    0.9501 C   0  0  0  0  0  0  0  0  0  0  0  0
   -5.3146   14.7509   -0.3831 C   0  0  0  0  0  0  0  0  0  0  0  0
   -2.9119   15.1399   -0.4821 C   0  0  0  0  0  0  0  0  0  0  0  0
   -2.8501   14.9833    1.0052 C   0  0  0  0  0  0  0  0  0  0  0  0
    0.5358   14.9098   -2.6129 C   0  0  0  0  0  0  0  0  0  0  0  0
   -1.7608   13.4438   -3.0771 C   0  0  0  0  0  0  0  0  0  0  0  0
   -6.5837   14.6386   -1.1665 C   0  0  0  0  0  0  0  0  0  0  0  0
   -1.6914   15.3934   -1.2391 N   0  0  0  0  0  0  0  0  0  0  0  0
   -4.0647   14.7307    1.6237 N   0  0  0  0  0  0  0  0  0  0  0  0
   -1.7860   15.0786    1.6122 O   0  0  0  0  0  0  0  0  0  0  0  0
   -0.3215   13.1248   -0.9327 O   0  0  0  0  0  0  0  0  0  0  0  0
   -6.3561   14.8108   -2.4857 F   0  0  0  0  0  0  0  0  0  0  0  0
   -7.1547   13.4270   -1.0019 F   0  0  0  0  0  0  0  0  0  0  0  0
   -7.4783   15.5715   -0.7774 F   0  0  0  0  0  0  0  0  0  0  0  0
   -0.8498   14.2024   -1.7503 S   0  0  0  0  0  0  0  0  0  0  0  0
   -4.1574   15.1106   -2.1931 H   0  0  0  0  0  0  0  0  0  0  0  0
   -6.1241   14.4216    1.5658 H   0  0  0  0  0  0  0  0  0  0  0  0
    1.1754   15.4109   -1.8849 H   0  0  0  0  0  0  0  0  0  0  0  0
    0.1571   15.6243   -3.3449 H   0  0  0  0  0  0  0  0  0  0  0  0
    1.0794   14.1051   -3.1099 H   0  0  0  0  0  0  0  0  0  0  0  0
   -2.6492   12.9694   -2.6577 H   0  0  0  0  0  0  0  0  0  0  0  0
   -1.1199   12.7011   -3.5539 H   0  0  0  0  0  0  0  0  0  0  0  0
   -2.0420   14.2203   -3.7899 H   0  0  0  0  0  0  0  0  0  0  0  0
   -4.0740   14.6214    2.6336 H   0  0  0  0  0  0  0  0  0  0  0  0
  1  3  1  0  0  0  0
  1  4  2  0  0  0  0
  2  3  2  0  0  0  0
  2 10  1  0  0  0  0
  3  8  1  0  0  0  0
  4  5  1  0  0  0  0
  4  9  1  0  0  0  0
  5 10  1  0  0  0  0
  5 11  2  0  0  0  0
  6 16  1  0  0  0  0
  7 16  1  0  0  0  0
  8 13  1  0  0  0  0
  8 14  1  0  0  0  0
  8 15  1  0  0  0  0
  9 16  2  0  0  0  0
 12 16  2  0  0  0  0
  1 17  1  0  0  0  0
  2 18  1  0  0  0  0
  6 19  1  0  0  0  0
  6 20  1  0  0  0  0
  6 21  1  0  0  0  0
  7 22  1  0  0  0  0
  7 23  1  0  0  0  0
  7 24  1  0  0  0  0
 10 25  1  0  0  0  0
M  END
> <HYBRID receptor title>
5S18(A) > WOY(A-201)

> <HYBRID receptor filename>
experiments/data/docking/5s18.oedu

> <HYBRID Chemgauss4 score>
-7.194105

> <HYBRID receptor title>
5S18(A) > WOY(A-201)

> <HYBRID receptor filename>
experiments/data/docking/5s18.oedu

> <Dock Type>
Hybrid

$$$$
MOL0329
  -OEChem-07032415493D

 26 27  0     0  0  0  0  0  0999 V2000
   -7.6674   14.5019    2.6071 C   0  0  0  0  0  0  0  0  0  0  0  0
   -8.5214   13.7613    1.7975 C   0  0  0  0  0  0  0  0  0  0  0  0
   -6.3693   14.7635    2.1833 C   0  0  0  0  0  0  0  0  0  0  0  0
   -8.0325   13.3086    0.5822 C   0  0  0  0  0  0  0  0  0  0  0  0
   -5.9765   14.2662    0.9512 C   0  0  0  0  0  0  0  0  0  0  0  0
   -2.9472   14.8657   -1.2221 C   0  0  0  0  0  0  0  0  0  0  0  0
   -4.6299   14.5149    0.4633 C   0  0  0  0  0  0  0  0  0  0  0  0
   -4.3289   14.6138   -0.8470 C   0  0  0  0  0  0  0  0  0  0  0  0
   -1.9569   15.0013   -0.3250 C   0  0  0  0  0  0  0  0  0  0  0  0
   -2.3071   14.8861    1.1301 C   0  0  0  0  0  0  0  0  0  0  0  0
   -5.2986   14.4894   -1.9875 C   0  0  0  0  0  0  0  0  0  0  0  0
   -6.7776   13.5430    0.1372 N   0  0  0  0  0  0  0  0  0  0  0  0
   -3.6399   14.6481    1.4145 N   0  0  0  0  0  0  0  0  0  0  0  0
   -0.6480   15.2370   -0.6236 N   0  0  0  0  0  0  0  0  0  0  0  0
   -1.4460   14.9998    2.0007 O   0  0  0  0  0  0  0  0  0  0  0  0
   -4.6695   14.6419   -3.1691 F   0  0  0  0  0  0  0  0  0  0  0  0
   -5.8943   13.2811   -1.9849 F   0  0  0  0  0  0  0  0  0  0  0  0
   -6.2608   15.4288   -1.9024 F   0  0  0  0  0  0  0  0  0  0  0  0
   -8.0121   14.8736    3.5673 H   0  0  0  0  0  0  0  0  0  0  0  0
   -9.5364   13.5424    2.1087 H   0  0  0  0  0  0  0  0  0  0  0  0
   -5.6972   15.3408    2.8103 H   0  0  0  0  0  0  0  0  0  0  0  0
   -8.6577   12.7248   -0.0853 H   0  0  0  0  0  0  0  0  0  0  0  0
   -2.7273   14.9432   -2.2843 H   0  0  0  0  0  0  0  0  0  0  0  0
   -3.9081   14.5658    2.3916 H   0  0  0  0  0  0  0  0  0  0  0  0
   -0.3829   15.3190   -1.5815 H   0  0  0  0  0  0  0  0  0  0  0  0
    0.0060   15.3207    0.1242 H   0  0  0  0  0  0  0  0  0  0  0  0
  1  2  1  0  0  0  0
  1  3  2  0  0  0  0
  2  4  2  0  0  0  0
  3  5  1  0  0  0  0
  4 12  1  0  0  0  0
  5  7  1  0  0  0  0
  5 12  2  0  0  0  0
  6  8  1  0  0  0  0
  6  9  2  0  0  0  0
  7  8  2  0  0  0  0
  7 13  1  0  0  0  0
  8 11  1  0  0  0  0
  9 10  1  0  0  0  0
  9 14  1  0  0  0  0
 10 13  1  0  0  0  0
 10 15  2  0  0  0  0
 11 16  1  0  0  0  0
 11 17  1  0  0  0  0
 11 18  1  0  0  0  0
  1 19  1  0  0  0  0
  2 20  1  0  0  0  0
  3 21  1  0  0  0  0
  4 22  1  0  0  0  0
  6 23  1  0  0  0  0
 13 24  1  0  0  0  0
 14 25  1  0  0  0  0
 14 26  1  0  0  0  0
M  END
> <HYBRID receptor title>
5S18(A) > WOY(A-201)

> <HYBRID receptor filename>
experiments/data/docking/5s18.oedu

> <HYBRID Chemgauss4 score>
-7.189267

> <HYBRID receptor title>
5S18(A) > WOY(A-201)

> <HYBRID receptor filename>
experiments/data/docking/5s18.oedu

> <Dock Type>
Hybrid

$$$$
MOL0166
  -OEChem-07032415493D

 25 26  0     0  0  0  0  0  0999 V2000
    0.9805   14.5445   -3.2376 C   0  0  0  0  0  0  0  0  0  0  0  0
    0.0654   15.5793   -3.4311 C   0  0  0  0  0  0  0  0  0  0  0  0
    0.7366   13.5705   -2.2694 C   0  0  0  0  0  0  0  0  0  0  0  0
   -1.0935   15.6400   -2.6569 C   0  0  0  0  0  0  0  0  0  0  0  0
   -0.4222   13.6313   -1.4951 C   0  0  0  0  0  0  0  0  0  0  0  0
   -1.3373   14.6661   -1.6886 C   0  0  0  0  0  0  0  0  0  0  0  0
   -3.7534   14.6855   -1.4701 C   0  0  0  0  0  0  0  0  0  0  0  0
   -4.9138   14.8539    0.6256 C   0  0  0  0  0  0  0  0  0  0  0  0
   -2.5437   14.7297   -0.8811 C   0  0  0  0  0  0  0  0  0  0  0  0
   -4.9854   14.7440   -0.7079 C   0  0  0  0  0  0  0  0  0  0  0  0
   -2.4813   14.8468    0.6192 C   0  0  0  0  0  0  0  0  0  0  0  0
   -6.2766   14.6819   -1.4606 C   0  0  0  0  0  0  0  0  0  0  0  0
   -3.7041   14.9051    1.2681 N   0  0  0  0  0  0  0  0  0  0  0  0
   -1.4017   14.8880    1.2058 O   0  0  0  0  0  0  0  0  0  0  0  0
   -6.0590   14.5767   -2.7884 F   0  0  0  0  0  0  0  0  0  0  0  0
   -7.0146   13.6188   -1.0786 F   0  0  0  0  0  0  0  0  0  0  0  0
   -7.0145   15.7923   -1.2503 F   0  0  0  0  0  0  0  0  0  0  0  0
    1.8829   14.4976   -3.8401 H   0  0  0  0  0  0  0  0  0  0  0  0
    0.2543   16.3379   -4.1851 H   0  0  0  0  0  0  0  0  0  0  0  0
    1.4488   12.7648   -2.1173 H   0  0  0  0  0  0  0  0  0  0  0  0
   -1.7977   16.4522   -2.8207 H   0  0  0  0  0  0  0  0  0  0  0  0
   -0.5979   12.8645   -0.7442 H   0  0  0  0  0  0  0  0  0  0  0  0
   -3.8427   14.6016   -2.5505 H   0  0  0  0  0  0  0  0  0  0  0  0
   -5.7867   14.9060    1.2649 H   0  0  0  0  0  0  0  0  0  0  0  0
   -3.7041   14.9910    2.2803 H   0  0  0  0  0  0  0  0  0  0  0  0
  1  2  1  0  0  0  0
  1  3  2  0  0  0  0
  2  4  2  0  0  0  0
  3  5  1  0  0  0  0
  4  6  1  0  0  0  0
  5  6  2  0  0  0  0
  6  9  1  0  0  0  0
  7  9  2  0  0  0  0
  7 10  1  0  0  0  0
  8 10  2  0  0  0  0
  8 13  1  0  0  0  0
  9 11  1  0  0  0  0
 10 12  1  0  0  0  0
 11 13  1  0  0  0  0
 11 14  2  0  0  0  0
 12 15  1  0  0  0  0
 12 16  1  0  0  0  0
 12 17  1  0  0  0  0
  1 18  1  0  0  0  0
  2 19  1  0  0  0  0
  3 20  1  0  0  0  0
  4 21  1  0  0  0  0
  5 22  1  0  0  0  0
  7 23  1  0  0  0  0
  8 24  1  0  0  0  0
 13 25  1  0  0  0  0
M  END
> <HYBRID receptor title>
5S18(A) > WOY(A-201)

> <HYBRID receptor filename>
experiments/data/docking/5s18.oedu

> <HYBRID Chemgauss4 score>
-7.185489

> <HYBRID receptor title>
5S18(A) > WOY(A-201)

> <HYBRID receptor filename>
experiments/data/docking/5s18.oedu

> <Dock Type>
Hybrid

$$$$
MOL0209
  -OEChem-07032415493D

 21 22  0     0  0  0  0  0  0999 V2000
   -5.0856   14.2931   -2.8077 C   0  0  0  0  0  0  0  0  0  0  0  0
   -6.3190   14.5089   -3.3773 C   0  0  0  0  0  0  0  0  0  0  0  0
   -6.4210   15.3571   -1.3723 C   0  0  0  0  0  0  0  0  0  0  0  0
   -5.1519   14.8440   -1.5060 C   0  0  0  0  0  0  0  0  0  0  0  0
   -2.7367   14.9289   -0.8973 C   0  0  0  0  0  0  0  0  0  0  0  0
   -4.4305   14.8663    0.7986 C   0  0  0  0  0  0  0  0  0  0  0  0
   -4.1383   14.8782   -0.5127 C   0  0  0  0  0  0  0  0  0  0  0  0
   -1.7342   14.9617   -0.0019 C   0  0  0  0  0  0  0  0  0  0  0  0
   -2.0905   14.9458    1.4593 C   0  0  0  0  0  0  0  0  0  0  0  0
   -3.4431   14.8979    1.7488 N   0  0  0  0  0  0  0  0  0  0  0  0
   -0.4061   15.0093   -0.3057 N   0  0  0  0  0  0  0  0  0  0  0  0
   -1.2187   14.9743    2.3262 O   0  0  0  0  0  0  0  0  0  0  0  0
   -7.1388   15.1566   -2.5085 O   0  0  0  0  0  0  0  0  0  0  0  0
   -4.2478   13.7982   -3.2790 H   0  0  0  0  0  0  0  0  0  0  0  0
   -6.7490   14.2739   -4.3400 H   0  0  0  0  0  0  0  0  0  0  0  0
   -6.9453   15.8671   -0.5766 H   0  0  0  0  0  0  0  0  0  0  0  0
   -2.5112   14.9394   -1.9611 H   0  0  0  0  0  0  0  0  0  0  0  0
   -5.4434   14.8303    1.1832 H   0  0  0  0  0  0  0  0  0  0  0  0
   -3.7319   14.8866    2.7228 H   0  0  0  0  0  0  0  0  0  0  0  0
   -0.1349   15.0216   -1.2653 H   0  0  0  0  0  0  0  0  0  0  0  0
    0.2549   15.0305    0.4402 H   0  0  0  0  0  0  0  0  0  0  0  0
  1  2  2  0  0  0  0
  1  4  1  0  0  0  0
  2 13  1  0  0  0  0
  3  4  2  0  0  0  0
  3 13  1  0  0  0  0
  4  7  1  0  0  0  0
  5  7  1  0  0  0  0
  5  8  2  0  0  0  0
  6  7  2  0  0  0  0
  6 10  1  0  0  0  0
  8  9  1  0  0  0  0
  8 11  1  0  0  0  0
  9 10  1  0  0  0  0
  9 12  2  0  0  0  0
  1 14  1  0  0  0  0
  2 15  1  0  0  0  0
  3 16  1  0  0  0  0
  5 17  1  0  0  0  0
  6 18  1  0  0  0  0
 10 19  1  0  0  0  0
 11 20  1  0  0  0  0
 11 21  1  0  0  0  0
M  END
> <HYBRID receptor title>
5S18(A) > WOY(A-201)

> <HYBRID receptor filename>
experiments/data/docking/5s18.oedu

> <HYBRID Chemgauss4 score>
-7.177022

> <HYBRID receptor title>
5S18(A) > WOY(A-201)

> <HYBRID receptor filename>
experiments/data/docking/5s18.oedu

> <Dock Type>
Hybrid

$$$$
MOL0412
  -OEChem-07032415493D

 26 26  0     1  0  0  0  0  0999 V2000
   -2.6145   14.8218   -1.1540 C   0  0  0  0  0  0  0  0  0  0  0  0
   -4.2296   15.3429    0.5421 C   0  0  0  0  0  0  0  0  0  0  0  0
   -3.9686   15.1529   -0.7585 C   0  0  0  0  0  0  0  0  0  0  0  0
   -1.6125   14.6981   -0.2665 C   0  0  0  0  0  0  0  0  0  0  0  0
   -1.9257   14.9155    1.1902 C   0  0  0  0  0  0  0  0  0  0  0  0
    0.7766   15.3387   -0.4271 C   0  0  0  0  0  0  0  0  0  0  0  0
   -0.1750   14.6421   -3.3880 C   0  0  0  0  0  0  0  0  0  0  0  0
   -5.0043   15.2637   -1.8320 C   0  0  0  0  0  0  0  0  0  0  0  0
   -3.2425   15.2284    1.4856 N   0  0  0  0  0  0  0  0  0  0  0  0
   -0.3238   14.3770   -0.7105 N   0  0  2  0  0  0  0  0  0  0  0  0
   -1.0443   14.8137    2.0409 O   0  0  0  0  0  0  0  0  0  0  0  0
   -1.4353   12.6352   -2.2887 O   0  0  0  0  0  0  0  0  0  0  0  0
    1.0721   12.7153   -2.1456 O   0  0  0  0  0  0  0  0  0  0  0  0
   -4.4700   15.0234   -3.0478 F   0  0  0  0  0  0  0  0  0  0  0  0
   -6.0047   14.3787   -1.6396 F   0  0  0  0  0  0  0  0  0  0  0  0
   -5.5469   16.4993   -1.8570 F   0  0  0  0  0  0  0  0  0  0  0  0
   -0.2097   13.3946   -2.1185 S   0  0  0  0  0  0  0  0  0  0  0  0
   -2.4321   14.6740   -2.2154 H   0  0  0  0  0  0  0  0  0  0  0  0
   -5.2134   15.5927    0.9199 H   0  0  0  0  0  0  0  0  0  0  0  0
    1.7246   14.9669   -0.8264 H   0  0  0  0  0  0  0  0  0  0  0  0
    0.5588   16.3077   -0.8850 H   0  0  0  0  0  0  0  0  0  0  0  0
    0.8828   15.4838    0.6515 H   0  0  0  0  0  0  0  0  0  0  0  0
   -0.1022   14.1457   -4.3568 H   0  0  0  0  0  0  0  0  0  0  0  0
    0.6931   15.2806   -3.2194 H   0  0  0  0  0  0  0  0  0  0  0  0
   -1.0956   15.2239   -3.3244 H   0  0  0  0  0  0  0  0  0  0  0  0
   -3.4909   15.3819    2.4586 H   0  0  0  0  0  0  0  0  0  0  0  0
  1  3  1  0  0  0  0
  1  4  2  0  0  0  0
  2  3  2  0  0  0  0
  2  9  1  0  0  0  0
  3  8  1  0  0  0  0
  4  5  1  0  0  0  0
  4 10  1  0  0  0  0
  5  9  1  0  0  0  0
  5 11  2  0  0  0  0
  6 10  1  0  0  0  0
  7 17  1  0  0  0  0
  8 14  1  0  0  0  0
  8 15  1  0  0  0  0
  8 16  1  0  0  0  0
 10 17  1  0  0  0  0
 12 17  2  0  0  0  0
 13 17  2  0  0  0  0
  1 18  1  0  0  0  0
  2 19  1  0  0  0  0
  6 20  1  0  0  0  0
  6 21  1  0  0  0  0
  6 22  1  0  0  0  0
  7 23  1  0  0  0  0
  7 24  1  0  0  0  0
  7 25  1  0  0  0  0
  9 26  1  0  0  0  0
M  END
> <HYBRID receptor title>
5S18(A) > WOY(A-201)

> <HYBRID receptor filename>
experiments/data/docking/5s18.oedu

> <HYBRID Chemgauss4 score>
-7.176823

> <HYBRID receptor title>
5S18(A) > WOY(A-201)

> <HYBRID receptor filename>
experiments/data/docking/5s18.oedu

> <Dock Type>
Hybrid

$$$$
MOL0173
  -OEChem-07032415493D

 25 25  0     1  0  0  0  0  0999 V2000
   -2.7676   14.9182   -0.8942 C   0  0  0  0  0  0  0  0  0  0  0  0
   -4.3868   14.8204    0.9178 C   0  0  0  0  0  0  0  0  0  0  0  0
   -1.7751   14.9421    0.0025 C   0  0  0  0  0  0  0  0  0  0  0  0
   -4.1107   14.8547   -0.3894 C   0  0  0  0  0  0  0  0  0  0  0  0
   -2.0094   14.9055    1.4716 C   0  0  0  0  0  0  0  0  0  0  0  0
   -4.5694   13.2251   -3.0845 C   0  0  0  0  0  0  0  0  0  0  0  0
   -6.4762   15.1949   -0.9813 C   0  0  0  0  0  0  0  0  0  0  0  0
   -4.8153   14.6845   -2.7424 C   0  0  0  0  0  0  0  0  0  0  0  0
   -3.3547   14.8454    1.8316 N   0  0  0  0  0  0  0  0  0  0  0  0
   -0.4570   15.0022   -0.3644 N   0  0  0  0  0  0  0  0  0  0  0  0
   -5.1121   14.8309   -1.3269 N   0  0  3  0  0  0  0  0  0  0  0  0
   -1.0891   14.9272    2.2843 O   0  0  0  0  0  0  0  0  0  0  0  0
   -2.5814   14.9453   -1.9623 H   0  0  0  0  0  0  0  0  0  0  0  0
   -5.3865   14.7728    1.3313 H   0  0  0  0  0  0  0  0  0  0  0  0
   -5.4528   12.6269   -2.8402 H   0  0  0  0  0  0  0  0  0  0  0  0
   -3.7225   12.8215   -2.5193 H   0  0  0  0  0  0  0  0  0  0  0  0
   -4.3605   13.0984   -4.1523 H   0  0  0  0  0  0  0  0  0  0  0  0
   -7.1288   15.1151   -1.8555 H   0  0  0  0  0  0  0  0  0  0  0  0
   -6.8568   14.5337   -0.1977 H   0  0  0  0  0  0  0  0  0  0  0  0
   -6.5102   16.2232   -0.6107 H   0  0  0  0  0  0  0  0  0  0  0  0
   -3.9277   15.2761   -2.9894 H   0  0  0  0  0  0  0  0  0  0  0  0
   -5.6510   15.0699   -3.3356 H   0  0  0  0  0  0  0  0  0  0  0  0
   -3.5870   14.8185    2.8200 H   0  0  0  0  0  0  0  0  0  0  0  0
   -0.2375   15.0289   -1.3338 H   0  0  0  0  0  0  0  0  0  0  0  0
    0.2322   15.0172    0.3515 H   0  0  0  0  0  0  0  0  0  0  0  0
  1  3  2  0  0  0  0
  1  4  1  0  0  0  0
  2  4  2  0  0  0  0
  2  9  1  0  0  0  0
  3  5  1  0  0  0  0
  3 10  1  0  0  0  0
  4 11  1  0  0  0  0
  5  9  1  0  0  0  0
  5 12  2  0  0  0  0
  6  8  1  0  0  0  0
  7 11  1  0  0  0  0
  8 11  1  0  0  0  0
  1 13  1  0  0  0  0
  2 14  1  0  0  0  0
  6 15  1  0  0  0  0
  6 16  1  0  0  0  0
  6 17  1  0  0  0  0
  7 18  1  0  0  0  0
  7 19  1  0  0  0  0
  7 20  1  0  0  0  0
  8 21  1  0  0  0  0
  8 22  1  0  0  0  0
  9 23  1  0  0  0  0
 10 24  1  0  0  0  0
 10 25  1  0  0  0  0
M  END
> <HYBRID receptor title>
5S18(A) > WOY(A-201)

> <HYBRID receptor filename>
experiments/data/docking/5s18.oedu

> <HYBRID Chemgauss4 score>
-7.166835

> <HYBRID receptor title>
5S18(A) > WOY(A-201)

> <HYBRID receptor filename>
experiments/data/docking/5s18.oedu

> <Dock Type>
Hybrid

$$$$
MOL0015
  -OEChem-07032415493D

 22 22  0     0  0  0  0  0  0999 V2000
   -3.6925   14.6667   -1.1332 C   0  0  0  0  0  0  0  0  0  0  0  0
   -4.9212   14.6666    0.9276 C   0  0  0  0  0  0  0  0  0  0  0  0
   -4.9433   14.5670   -0.4086 C   0  0  0  0  0  0  0  0  0  0  0  0
   -2.5131   14.8546   -0.5162 C   0  0  0  0  0  0  0  0  0  0  0  0
   -2.5090   14.9641    0.9856 C   0  0  0  0  0  0  0  0  0  0  0  0
   -1.2088   14.8643   -2.5603 C   0  0  0  0  0  0  0  0  0  0  0  0
    0.2200   15.0046   -3.0154 C   0  0  0  0  0  0  0  0  0  0  0  0
   -6.1956   14.3573   -1.1991 C   0  0  0  0  0  0  0  0  0  0  0  0
   -3.7446   14.8587    1.6032 N   0  0  0  0  0  0  0  0  0  0  0  0
   -1.3282   14.9501   -1.1802 N   0  0  0  0  0  0  0  0  0  0  0  0
   -1.4597   15.1365    1.6029 O   0  0  0  0  0  0  0  0  0  0  0  0
   -2.1292   14.7069   -3.3587 O   0  0  0  0  0  0  0  0  0  0  0  0
   -5.9298   14.2939   -2.5208 F   0  0  0  0  0  0  0  0  0  0  0  0
   -6.8097   13.2084   -0.8470 F   0  0  0  0  0  0  0  0  0  0  0  0
   -7.0686   15.3677   -1.0023 F   0  0  0  0  0  0  0  0  0  0  0  0
   -3.7364   14.5829   -2.2160 H   0  0  0  0  0  0  0  0  0  0  0  0
   -5.8104   14.6031    1.5428 H   0  0  0  0  0  0  0  0  0  0  0  0
    0.6931   14.0195   -3.0527 H   0  0  0  0  0  0  0  0  0  0  0  0
    0.7787   15.6354   -2.3177 H   0  0  0  0  0  0  0  0  0  0  0  0
    0.2435   15.4529   -4.0124 H   0  0  0  0  0  0  0  0  0  0  0  0
   -3.7914   14.9265    2.6157 H   0  0  0  0  0  0  0  0  0  0  0  0
   -0.4935   15.0923   -0.6158 H   0  0  0  0  0  0  0  0  0  0  0  0
  1  3  1  0  0  0  0
  1  4  2  0  0  0  0
  2  3  2  0  0  0  0
  2  9  1  0  0  0  0
  3  8  1  0  0  0  0
  4  5  1  0  0  0  0
  4 10  1  0  0  0  0
  5  9  1  0  0  0  0
  5 11  2  0  0  0  0
  6  7  1  0  0  0  0
  6 10  1  0  0  0  0
  6 12  2  0  0  0  0
  8 13  1  0  0  0  0
  8 14  1  0  0  0  0
  8 15  1  0  0  0  0
  1 16  1  0  0  0  0
  2 17  1  0  0  0  0
  7 18  1  0  0  0  0
  7 19  1  0  0  0  0
  7 20  1  0  0  0  0
  9 21  1  0  0  0  0
 10 22  1  0  0  0  0
M  END
> <HYBRID receptor title>
5S18(A) > WOY(A-201)

> <HYBRID receptor filename>
experiments/data/docking/5s18.oedu

> <HYBRID Chemgauss4 score>
-7.157742

> <HYBRID receptor title>
5S18(A) > WOY(A-201)

> <HYBRID receptor filename>
experiments/data/docking/5s18.oedu

> <Dock Type>
Hybrid

$$$$
MOL0133
  -OEChem-07032415493D

 29 29  0     1  0  0  0  0  0999 V2000
   -4.1950   14.2972   -0.9883 C   0  0  0  0  0  0  0  0  0  0  0  0
   -5.2775   14.4099    1.1499 C   0  0  0  0  0  0  0  0  0  0  0  0
   -5.3883   14.2117   -0.1708 C   0  0  0  0  0  0  0  0  0  0  0  0
   -2.9835   14.5670   -0.4723 C   0  0  0  0  0  0  0  0  0  0  0  0
   -2.8796   14.7867    1.0138 C   0  0  0  0  0  0  0  0  0  0  0  0
    0.2190   12.8883   -2.3829 C   0  0  0  0  0  0  0  0  0  0  0  0
   -2.2611   15.7321   -3.3170 C   0  0  0  0  0  0  0  0  0  0  0  0
   -0.3291   14.1364   -3.0623 C   0  0  0  0  0  0  0  0  0  0  0  0
   -1.7554   14.4778   -2.6122 C   0  0  1  0  0  0  0  0  0  0  0  0
   -6.6835   13.9053   -0.8528 C   0  0  0  0  0  0  0  0  0  0  0  0
   -4.0649   14.6880    1.7241 N   0  0  0  0  0  0  0  0  0  0  0  0
   -1.8254   14.6608   -1.1852 N   0  0  0  0  0  0  0  0  0  0  0  0
   -1.7988   15.0369    1.5441 O   0  0  0  0  0  0  0  0  0  0  0  0
   -6.5075   13.7533   -2.1824 F   0  0  0  0  0  0  0  0  0  0  0  0
   -7.2295   12.7665   -0.3771 F   0  0  0  0  0  0  0  0  0  0  0  0
   -7.5773   14.8994   -0.6664 F   0  0  0  0  0  0  0  0  0  0  0  0
   -4.3080   14.1335   -2.0567 H   0  0  0  0  0  0  0  0  0  0  0  0
   -6.1191   14.3638    1.8300 H   0  0  0  0  0  0  0  0  0  0  0  0
   -0.4241   12.0213   -2.5610 H   0  0  0  0  0  0  0  0  0  0  0  0
    0.2786   13.0440   -1.3011 H   0  0  0  0  0  0  0  0  0  0  0  0
    1.2239   12.6535   -2.7470 H   0  0  0  0  0  0  0  0  0  0  0  0
   -1.6136   16.5878   -3.0979 H   0  0  0  0  0  0  0  0  0  0  0  0
   -3.2754   15.9829   -2.9911 H   0  0  0  0  0  0  0  0  0  0  0  0
   -2.2736   15.5993   -4.4050 H   0  0  0  0  0  0  0  0  0  0  0  0
    0.3448   14.9772   -2.8577 H   0  0  0  0  0  0  0  0  0  0  0  0
   -0.3179   13.9717   -4.1465 H   0  0  0  0  0  0  0  0  0  0  0  0
   -2.4252   13.6434   -2.8528 H   0  0  0  0  0  0  0  0  0  0  0  0
   -4.0331   14.8302    2.7295 H   0  0  0  0  0  0  0  0  0  0  0  0
   -0.9789   14.8714   -0.6830 H   0  0  0  0  0  0  0  0  0  0  0  0
  1  3  1  0  0  0  0
  1  4  2  0  0  0  0
  2  3  2  0  0  0  0
  2 11  1  0  0  0  0
  3 10  1  0  0  0  0
  4  5  1  0  0  0  0
  4 12  1  0  0  0  0
  5 11  1  0  0  0  0
  5 13  2  0  0  0  0
  6  8  1  0  0  0  0
  7  9  1  0  0  0  0
  8  9  1  0  0  0  0
  9 12  1  0  0  0  0
 10 14  1  0  0  0  0
 10 15  1  0  0  0  0
 10 16  1  0  0  0  0
  1 17  1  0  0  0  0
  2 18  1  0  0  0  0
  6 19  1  0  0  0  0
  6 20  1  0  0  0  0
  6 21  1  0  0  0  0
  7 22  1  0  0  0  0
  7 23  1  0  0  0  0
  7 24  1  0  0  0  0
  8 25  1  0  0  0  0
  8 26  1  0  0  0  0
  9 27  1  0  0  0  0
 11 28  1  0  0  0  0
 12 29  1  0  0  0  0
M  END
> <HYBRID receptor title>
5S18(A) > WOY(A-201)

> <HYBRID receptor filename>
experiments/data/docking/5s18.oedu

> <HYBRID Chemgauss4 score>
-7.135326

> <HYBRID receptor title>
5S18(A) > WOY(A-201)

> <HYBRID receptor filename>
experiments/data/docking/5s18.oedu

> <Dock Type>
Hybrid

$$$$
MOL0175
  -OEChem-07032415493D

 29 29  0     1  0  0  0  0  0999 V2000
   -4.1950   14.2972   -0.9883 C   0  0  0  0  0  0  0  0  0  0  0  0
   -5.2775   14.4099    1.1499 C   0  0  0  0  0  0  0  0  0  0  0  0
   -5.3883   14.2117   -0.1708 C   0  0  0  0  0  0  0  0  0  0  0  0
   -2.9835   14.5670   -0.4723 C   0  0  0  0  0  0  0  0  0  0  0  0
   -2.8796   14.7867    1.0138 C   0  0  0  0  0  0  0  0  0  0  0  0
    0.2190   12.8883   -2.3829 C   0  0  0  0  0  0  0  0  0  0  0  0
   -2.2611   15.7321   -3.3170 C   0  0  0  0  0  0  0  0  0  0  0  0
   -0.3291   14.1364   -3.0623 C   0  0  0  0  0  0  0  0  0  0  0  0
   -1.7554   14.4778   -2.6122 C   0  0  1  0  0  0  0  0  0  0  0  0
   -6.6835   13.9053   -0.8528 C   0  0  0  0  0  0  0  0  0  0  0  0
   -4.0649   14.6880    1.7241 N   0  0  0  0  0  0  0  0  0  0  0  0
   -1.8254   14.6608   -1.1852 N   0  0  0  0  0  0  0  0  0  0  0  0
   -1.7988   15.0369    1.5441 O   0  0  0  0  0  0  0  0  0  0  0  0
   -6.5075   13.7533   -2.1824 F   0  0  0  0  0  0  0  0  0  0  0  0
   -7.2295   12.7665   -0.3771 F   0  0  0  0  0  0  0  0  0  0  0  0
   -7.5773   14.8994   -0.6664 F   0  0  0  0  0  0  0  0  0  0  0  0
   -4.3080   14.1335   -2.0567 H   0  0  0  0  0  0  0  0  0  0  0  0
   -6.1191   14.3638    1.8300 H   0  0  0  0  0  0  0  0  0  0  0  0
   -0.4241   12.0213   -2.5610 H   0  0  0  0  0  0  0  0  0  0  0  0
    0.2786   13.0440   -1.3011 H   0  0  0  0  0  0  0  0  0  0  0  0
    1.2239   12.6535   -2.7470 H   0  0  0  0  0  0  0  0  0  0  0  0
   -1.6136   16.5878   -3.0979 H   0  0  0  0  0  0  0  0  0  0  0  0
   -3.2754   15.9829   -2.9911 H   0  0  0  0  0  0  0  0  0  0  0  0
   -2.2736   15.5993   -4.4050 H   0  0  0  0  0  0  0  0  0  0  0  0
    0.3448   14.9772   -2.8577 H   0  0  0  0  0  0  0  0  0  0  0  0
   -0.3179   13.9717   -4.1465 H   0  0  0  0  0  0  0  0  0  0  0  0
   -2.4252   13.6434   -2.8528 H   0  0  0  0  0  0  0  0  0  0  0  0
   -4.0331   14.8302    2.7295 H   0  0  0  0  0  0  0  0  0  0  0  0
   -0.9789   14.8714   -0.6830 H   0  0  0  0  0  0  0  0  0  0  0  0
  1  3  1  0  0  0  0
  1  4  2  0  0  0  0
  2  3  2  0  0  0  0
  2 11  1  0  0  0  0
  3 10  1  0  0  0  0
  4  5  1  0  0  0  0
  4 12  1  0  0  0  0
  5 11  1  0  0  0  0
  5 13  2  0  0  0  0
  6  8  1  0  0  0  0
  7  9  1  0  0  0  0
  8  9  1  0  0  0  0
  9 12  1  0  0  0  0
 10 14  1  0  0  0  0
 10 15  1  0  0  0  0
 10 16  1  0  0  0  0
  1 17  1  0  0  0  0
  2 18  1  0  0  0  0
  6 19  1  0  0  0  0
  6 20  1  0  0  0  0
  6 21  1  0  0  0  0
  7 22  1  0  0  0  0
  7 23  1  0  0  0  0
  7 24  1  0  0  0  0
  8 25  1  0  0  0  0
  8 26  1  0  0  0  0
  9 27  1  0  0  0  0
 11 28  1  0  0  0  0
 12 29  1  0  0  0  0
M  END
> <HYBRID receptor title>
5S18(A) > WOY(A-201)

> <HYBRID receptor filename>
experiments/data/docking/5s18.oedu

> <HYBRID Chemgauss4 score>
-7.135326

> <HYBRID receptor title>
5S18(A) > WOY(A-201)

> <HYBRID receptor filename>
experiments/data/docking/5s18.oedu

> <Dock Type>
Hybrid

$$$$
MOL0145
  -OEChem-07032415493D

 29 29  0     1  0  0  0  0  0999 V2000
   -2.3378   15.0068   -0.8953 C   0  0  0  0  0  0  0  0  0  0  0  0
   -4.0261   15.1257    0.8054 C   0  0  0  0  0  0  0  0  0  0  0  0
   -3.7300   15.0845   -0.5009 C   0  0  0  0  0  0  0  0  0  0  0  0
   -1.3344   14.9741   -0.0014 C   0  0  0  0  0  0  0  0  0  0  0  0
   -1.6875   15.0215    1.4617 C   0  0  0  0  0  0  0  0  0  0  0  0
   -8.6563   15.1675   -1.4390 C   0  0  0  0  0  0  0  0  0  0  0  0
   -4.5926   13.8636   -2.4385 C   0  0  0  0  0  0  0  0  0  0  0  0
   -7.2671   15.1634   -2.0590 C   0  0  0  0  0  0  0  0  0  0  0  0
   -6.1750   15.1824   -0.9857 C   0  0  0  0  0  0  0  0  0  0  0  0
   -4.7655   15.1147   -1.5846 C   0  0  1  0  0  0  0  0  0  0  0  0
   -3.0393   15.0953    1.7556 N   0  0  0  0  0  0  0  0  0  0  0  0
   -0.0079   14.9014   -0.3067 N   0  0  0  0  0  0  0  0  0  0  0  0
   -0.8136   14.9948    2.3263 O   0  0  0  0  0  0  0  0  0  0  0  0
   -2.1206   14.9748   -1.9596 H   0  0  0  0  0  0  0  0  0  0  0  0
   -5.0394   15.1842    1.1831 H   0  0  0  0  0  0  0  0  0  0  0  0
   -8.7878   16.0513   -0.8094 H   0  0  0  0  0  0  0  0  0  0  0  0
   -8.8096   14.2800   -0.8158 H   0  0  0  0  0  0  0  0  0  0  0  0
   -9.4304   15.1816   -2.2127 H   0  0  0  0  0  0  0  0  0  0  0  0
   -4.7758   12.9594   -1.8480 H   0  0  0  0  0  0  0  0  0  0  0  0
   -3.5777   13.8036   -2.8423 H   0  0  0  0  0  0  0  0  0  0  0  0
   -5.2963   13.8533   -3.2794 H   0  0  0  0  0  0  0  0  0  0  0  0
   -7.1575   14.2700   -2.6851 H   0  0  0  0  0  0  0  0  0  0  0  0
   -7.1701   16.0350   -2.7164 H   0  0  0  0  0  0  0  0  0  0  0  0
   -6.2831   16.0883   -0.3752 H   0  0  0  0  0  0  0  0  0  0  0  0
   -6.3240   14.3263   -0.3152 H   0  0  0  0  0  0  0  0  0  0  0  0
   -4.5754   15.9979   -2.2055 H   0  0  0  0  0  0  0  0  0  0  0  0
   -3.3151   15.1288    2.7327 H   0  0  0  0  0  0  0  0  0  0  0  0
    0.2612   14.8688   -1.2665 H   0  0  0  0  0  0  0  0  0  0  0  0
    0.6543   14.8830    0.4382 H   0  0  0  0  0  0  0  0  0  0  0  0
  1  3  1  0  0  0  0
  1  4  2  0  0  0  0
  2  3  2  0  0  0  0
  2 11  1  0  0  0  0
  3 10  1  0  0  0  0
  4  5  1  0  0  0  0
  4 12  1  0  0  0  0
  5 11  1  0  0  0  0
  5 13  2  0  0  0  0
  6  8  1  0  0  0  0
  7 10  1  0  0  0  0
  8  9  1  0  0  0  0
  9 10  1  0  0  0  0
  1 14  1  0  0  0  0
  2 15  1  0  0  0  0
  6 16  1  0  0  0  0
  6 17  1  0  0  0  0
  6 18  1  0  0  0  0
  7 19  1  0  0  0  0
  7 20  1  0  0  0  0
  7 21  1  0  0  0  0
  8 22  1  0  0  0  0
  8 23  1  0  0  0  0
  9 24  1  0  0  0  0
  9 25  1  0  0  0  0
 10 26  1  0  0  0  0
 11 27  1  0  0  0  0
 12 28  1  0  0  0  0
 12 29  1  0  0  0  0
M  END
> <HYBRID receptor title>
5S18(A) > WOY(A-201)

> <HYBRID receptor filename>
experiments/data/docking/5s18.oedu

> <HYBRID Chemgauss4 score>
-7.134910

> <HYBRID receptor title>
5S18(A) > WOY(A-201)

> <HYBRID receptor filename>
experiments/data/docking/5s18.oedu

> <Dock Type>
Hybrid

$$$$
MOL0249
  -OEChem-07032415493D

 26 26  0     0  0  0  0  0  0999 V2000
   -4.6323   14.6904    0.6830 C   0  0  0  0  0  0  0  0  0  0  0  0
   -4.3950   14.5110   -0.6215 C   0  0  0  0  0  0  0  0  0  0  0  0
   -3.0310   14.5640   -1.1396 C   0  0  0  0  0  0  0  0  0  0  0  0
   -1.9929   14.7957   -0.3004 C   0  0  0  0  0  0  0  0  0  0  0  0
   -2.2795   14.9957    1.1712 C   0  0  0  0  0  0  0  0  0  0  0  0
   -5.5824   14.2666   -1.4493 C   0  0  0  0  0  0  0  0  0  0  0  0
   -8.5777   13.4322   -1.0613 C   0  0  0  0  0  0  0  0  0  0  0  0
   -7.3818   12.7709   -1.7128 C   0  0  0  0  0  0  0  0  0  0  0  0
   -2.8545   14.3518   -2.6218 C   0  0  0  0  0  0  0  0  0  0  0  0
   -3.6045   14.9256    1.5526 N   0  0  0  0  0  0  0  0  0  0  0  0
   -0.6686   14.8740   -0.6284 N   0  0  0  0  0  0  0  0  0  0  0  0
   -1.3683   15.2083    1.9705 O   0  0  0  0  0  0  0  0  0  0  0  0
   -5.9164   14.9850   -2.3755 O   0  0  0  0  0  0  0  0  0  0  0  0
   -6.1971   13.1441   -1.0007 O   0  0  0  0  0  0  0  0  0  0  0  0
   -4.0442   14.1440   -3.2147 F   0  0  0  0  0  0  0  0  0  0  0  0
   -2.2810   15.4263   -3.1927 F   0  0  0  0  0  0  0  0  0  0  0  0
   -2.0731   13.2821   -2.8570 F   0  0  0  0  0  0  0  0  0  0  0  0
   -5.6183   14.6639    1.1316 H   0  0  0  0  0  0  0  0  0  0  0  0
   -8.6812   13.1134   -0.0203 H   0  0  0  0  0  0  0  0  0  0  0  0
   -8.4787   14.5221   -1.0894 H   0  0  0  0  0  0  0  0  0  0  0  0
   -9.4972   13.1824   -1.6003 H   0  0  0  0  0  0  0  0  0  0  0  0
   -7.2841   13.0938   -2.7534 H   0  0  0  0  0  0  0  0  0  0  0  0
   -7.4817   11.6814   -1.6835 H   0  0  0  0  0  0  0  0  0  0  0  0
   -3.8280   15.0562    2.5349 H   0  0  0  0  0  0  0  0  0  0  0  0
   -0.4071   14.7516   -1.5813 H   0  0  0  0  0  0  0  0  0  0  0  0
   -0.0094   15.0510    0.0959 H   0  0  0  0  0  0  0  0  0  0  0  0
  1  2  2  0  0  0  0
  1 10  1  0  0  0  0
  2  3  1  0  0  0  0
  2  6  1  0  0  0  0
  3  4  2  0  0  0  0
  3  9  1  0  0  0  0
  4  5  1  0  0  0  0
  4 11  1  0  0  0  0
  5 10  1  0  0  0  0
  5 12  2  0  0  0  0
  6 13  2  0  0  0  0
  6 14  1  0  0  0  0
  7  8  1  0  0  0  0
  8 14  1  0  0  0  0
  9 15  1  0  0  0  0
  9 16  1  0  0  0  0
  9 17  1  0  0  0  0
  1 18  1  0  0  0  0
  7 19  1  0  0  0  0
  7 20  1  0  0  0  0
  7 21  1  0  0  0  0
  8 22  1  0  0  0  0
  8 23  1  0  0  0  0
 10 24  1  0  0  0  0
 11 25  1  0  0  0  0
 11 26  1  0  0  0  0
M  END
> <HYBRID receptor title>
5S18(A) > WOY(A-201)

> <HYBRID receptor filename>
experiments/data/docking/5s18.oedu

> <HYBRID Chemgauss4 score>
-7.132303

> <HYBRID receptor title>
5S18(A) > WOY(A-201)

> <HYBRID receptor filename>
experiments/data/docking/5s18.oedu

> <Dock Type>
Hybrid

$$$$
MOL0306
  -OEChem-07032415493D

 17 17  0     0  0  0  0  0  0999 V2000
   -1.6411   14.8240   -0.2609 C   0  0  0  0  0  0  0  0  0  0  0  0
   -4.0337   14.5641   -0.5439 C   0  0  0  0  0  0  0  0  0  0  0  0
   -2.6886   14.6452   -1.0821 C   0  0  0  0  0  0  0  0  0  0  0  0
   -4.2395   14.6669    0.7778 C   0  0  0  0  0  0  0  0  0  0  0  0
   -1.8582   14.9400    1.2099 C   0  0  0  0  0  0  0  0  0  0  0  0
   -2.5407   14.5203   -2.5671 C   0  0  0  0  0  0  0  0  0  0  0  0
   -3.1744   14.8504    1.6281 N   0  0  0  0  0  0  0  0  0  0  0  0
   -5.5053   14.5915    1.2985 N   0  0  0  0  0  0  0  0  0  0  0  0
   -0.9045   15.1033    1.9666 O   0  0  0  0  0  0  0  0  0  0  0  0
   -1.2455   14.6119   -2.9329 F   0  0  0  0  0  0  0  0  0  0  0  0
   -3.0112   13.3348   -3.0057 F   0  0  0  0  0  0  0  0  0  0  0  0
   -3.2206   15.4959   -3.2043 F   0  0  0  0  0  0  0  0  0  0  0  0
   -0.6220   14.8897   -0.6249 H   0  0  0  0  0  0  0  0  0  0  0  0
   -4.8568   14.4190   -1.2371 H   0  0  0  0  0  0  0  0  0  0  0  0
   -3.3652   14.9246    2.6229 H   0  0  0  0  0  0  0  0  0  0  0  0
   -6.2651   14.4589    0.6721 H   0  0  0  0  0  0  0  0  0  0  0  0
   -5.6153   14.6722    2.2824 H   0  0  0  0  0  0  0  0  0  0  0  0
  1  3  2  0  0  0  0
  1  5  1  0  0  0  0
  2  3  1  0  0  0  0
  2  4  2  0  0  0  0
  3  6  1  0  0  0  0
  4  7  1  0  0  0  0
  4  8  1  0  0  0  0
  5  7  1  0  0  0  0
  5  9  2  0  0  0  0
  6 10  1  0  0  0  0
  6 11  1  0  0  0  0
  6 12  1  0  0  0  0
  1 13  1  0  0  0  0
  2 14  1  0  0  0  0
  7 15  1  0  0  0  0
  8 16  1  0  0  0  0
  8 17  1  0  0  0  0
M  END
> <HYBRID receptor title>
5S18(A) > WOY(A-201)

> <HYBRID receptor filename>
experiments/data/docking/5s18.oedu

> <HYBRID Chemgauss4 score>
-7.131697

> <HYBRID receptor title>
5S18(A) > WOY(A-201)

> <HYBRID receptor filename>
experiments/data/docking/5s18.oedu

> <Dock Type>
Hybrid

$$$$
MOL0180
  -OEChem-07032415493D

 32 32  0     0  0  0  0  0  0999 V2000
   -2.5476   14.5718   -1.2424 C   0  0  0  0  0  0  0  0  0  0  0  0
   -4.2792   14.9352    0.3782 C   0  0  0  0  0  0  0  0  0  0  0  0
   -3.9485   14.7189   -0.9022 C   0  0  0  0  0  0  0  0  0  0  0  0
   -1.5696   14.6437   -0.3231 C   0  0  0  0  0  0  0  0  0  0  0  0
   -1.9613   14.8874    1.1103 C   0  0  0  0  0  0  0  0  0  0  0  0
    0.3138   12.5507   -3.8323 C   0  0  0  0  0  0  0  0  0  0  0  0
   -0.1055   15.4445   -2.8232 C   0  0  0  0  0  0  0  0  0  0  0  0
    1.8249   14.2307   -1.7992 C   0  0  0  0  0  0  0  0  0  0  0  0
   -0.2141   12.9257   -2.4517 C   0  0  0  0  0  0  0  0  0  0  0  0
   -4.9511   14.6203   -2.0075 C   0  0  0  0  0  0  0  0  0  0  0  0
    0.2921   14.2813   -1.9036 C   0  0  0  0  0  0  0  0  0  0  0  0
   -3.3192   15.0169    1.3526 N   0  0  0  0  0  0  0  0  0  0  0  0
   -0.2479   14.5152   -0.5754 N   0  0  0  0  0  0  0  0  0  0  0  0
   -1.1118   14.9631    1.9961 O   0  0  0  0  0  0  0  0  0  0  0  0
   -4.3456   14.3997   -3.1934 F   0  0  0  0  0  0  0  0  0  0  0  0
   -5.8176   13.6081   -1.7932 F   0  0  0  0  0  0  0  0  0  0  0  0
   -5.6674   15.7592   -2.1160 F   0  0  0  0  0  0  0  0  0  0  0  0
   -2.3022   14.3975   -2.2865 H   0  0  0  0  0  0  0  0  0  0  0  0
   -5.3012   15.0561    0.7154 H   0  0  0  0  0  0  0  0  0  0  0  0
    0.0760   13.3181   -4.5747 H   0  0  0  0  0  0  0  0  0  0  0  0
    1.4030   12.4536   -3.7999 H   0  0  0  0  0  0  0  0  0  0  0  0
   -0.0966   11.5962   -4.1742 H   0  0  0  0  0  0  0  0  0  0  0  0
   -1.1941   15.5158   -2.9248 H   0  0  0  0  0  0  0  0  0  0  0  0
    0.2671   16.4039   -2.4481 H   0  0  0  0  0  0  0  0  0  0  0  0
    0.3173   15.3152   -3.8265 H   0  0  0  0  0  0  0  0  0  0  0  0
    2.1499   13.4105   -1.1489 H   0  0  0  0  0  0  0  0  0  0  0  0
    2.2230   15.1584   -1.3726 H   0  0  0  0  0  0  0  0  0  0  0  0
    2.2869   14.0860   -2.7820 H   0  0  0  0  0  0  0  0  0  0  0  0
    0.0527   12.1235   -1.7527 H   0  0  0  0  0  0  0  0  0  0  0  0
   -1.3108   12.9413   -2.5035 H   0  0  0  0  0  0  0  0  0  0  0  0
   -3.6208   15.1821    2.3084 H   0  0  0  0  0  0  0  0  0  0  0  0
    0.4030   14.5859    0.1878 H   0  0  0  0  0  0  0  0  0  0  0  0
  1  3  1  0  0  0  0
  1  4  2  0  0  0  0
  2  3  2  0  0  0  0
  2 12  1  0  0  0  0
  3 10  1  0  0  0  0
  4  5  1  0  0  0  0
  4 13  1  0  0  0  0
  5 12  1  0  0  0  0
  5 14  2  0  0  0  0
  6  9  1  0  0  0  0
  7 11  1  0  0  0  0
  8 11  1  0  0  0  0
  9 11  1  0  0  0  0
 10 15  1  0  0  0  0
 10 16  1  0  0  0  0
 10 17  1  0  0  0  0
 11 13  1  0  0  0  0
  1 18  1  0  0  0  0
  2 19  1  0  0  0  0
  6 20  1  0  0  0  0
  6 21  1  0  0  0  0
  6 22  1  0  0  0  0
  7 23  1  0  0  0  0
  7 24  1  0  0  0  0
  7 25  1  0  0  0  0
  8 26  1  0  0  0  0
  8 27  1  0  0  0  0
  8 28  1  0  0  0  0
  9 29  1  0  0  0  0
  9 30  1  0  0  0  0
 12 31  1  0  0  0  0
 13 32  1  0  0  0  0
M  END
> <HYBRID receptor title>
5S18(A) > WOY(A-201)

> <HYBRID receptor filename>
experiments/data/docking/5s18.oedu

> <HYBRID Chemgauss4 score>
-7.121625

> <HYBRID receptor title>
5S18(A) > WOY(A-201)

> <HYBRID receptor filename>
experiments/data/docking/5s18.oedu

> <Dock Type>
Hybrid

$$$$
MOL0381
  -OEChem-07032415493D

 24 24  0     0  0  0  0  0  0999 V2000
   -3.4754   14.8847   -1.2314 C   0  0  0  0  0  0  0  0  0  0  0  0
   -4.9187   15.1264    0.6779 C   0  0  0  0  0  0  0  0  0  0  0  0
   -4.7870   15.0223   -0.6484 C   0  0  0  0  0  0  0  0  0  0  0  0
   -2.3616   14.8572   -0.4782 C   0  0  0  0  0  0  0  0  0  0  0  0
   -2.5142   14.9755    1.0175 C   0  0  0  0  0  0  0  0  0  0  0  0
   -5.9857   15.0519   -1.4622 C   0  0  0  0  0  0  0  0  0  0  0  0
   -7.2056   14.6148   -1.0742 C   0  0  0  0  0  0  0  0  0  0  0  0
   -8.3781   14.6999   -2.0175 C   0  0  0  0  0  0  0  0  0  0  0  0
   -7.5420   14.0209    0.2651 C   0  0  0  0  0  0  0  0  0  0  0  0
   -3.8122   15.1037    1.4880 N   0  0  0  0  0  0  0  0  0  0  0  0
   -1.0904   14.7307   -0.9537 N   0  0  0  0  0  0  0  0  0  0  0  0
   -1.5321   14.9571    1.7576 O   0  0  0  0  0  0  0  0  0  0  0  0
   -3.4034   14.8025   -2.3126 H   0  0  0  0  0  0  0  0  0  0  0  0
   -5.8668   15.2322    1.1922 H   0  0  0  0  0  0  0  0  0  0  0  0
   -5.8618   15.4671   -2.4652 H   0  0  0  0  0  0  0  0  0  0  0  0
   -8.4855   13.8006   -2.6335 H   0  0  0  0  0  0  0  0  0  0  0  0
   -8.2595   15.5530   -2.6939 H   0  0  0  0  0  0  0  0  0  0  0  0
   -9.3088   14.8290   -1.4546 H   0  0  0  0  0  0  0  0  0  0  0  0
   -7.8558   14.7545    1.0094 H   0  0  0  0  0  0  0  0  0  0  0  0
   -8.3574   13.2968    0.1594 H   0  0  0  0  0  0  0  0  0  0  0  0
   -6.6701   13.4975    0.6726 H   0  0  0  0  0  0  0  0  0  0  0  0
   -3.9629   15.1864    2.4892 H   0  0  0  0  0  0  0  0  0  0  0  0
   -0.9535   14.6506   -1.9383 H   0  0  0  0  0  0  0  0  0  0  0  0
   -0.3349   14.7220   -0.3034 H   0  0  0  0  0  0  0  0  0  0  0  0
  1  3  1  0  0  0  0
  1  4  2  0  0  0  0
  2  3  2  0  0  0  0
  2 10  1  0  0  0  0
  3  6  1  0  0  0  0
  4  5  1  0  0  0  0
  4 11  1  0  0  0  0
  5 10  1  0  0  0  0
  5 12  2  0  0  0  0
  6  7  2  0  0  0  0
  7  8  1  0  0  0  0
  7  9  1  0  0  0  0
  1 13  1  0  0  0  0
  2 14  1  0  0  0  0
  6 15  1  0  0  0  0
  8 16  1  0  0  0  0
  8 17  1  0  0  0  0
  8 18  1  0  0  0  0
  9 19  1  0  0  0  0
  9 20  1  0  0  0  0
  9 21  1  0  0  0  0
 10 22  1  0  0  0  0
 11 23  1  0  0  0  0
 11 24  1  0  0  0  0
M  END
> <HYBRID receptor title>
5S18(A) > WOY(A-201)

> <HYBRID receptor filename>
experiments/data/docking/5s18.oedu

> <HYBRID Chemgauss4 score>
-7.119812

> <HYBRID receptor title>
5S18(A) > WOY(A-201)

> <HYBRID receptor filename>
experiments/data/docking/5s18.oedu

> <Dock Type>
Hybrid

$$$$
MOL0128
  -OEChem-07032415493D

 19 19  0     0  0  0  0  0  0999 V2000
   -4.6467   14.9224   -0.4275 C   0  0  0  0  0  0  0  0  0  0  0  0
   -3.3364   14.8303   -1.0484 C   0  0  0  0  0  0  0  0  0  0  0  0
   -2.2139   14.8220   -0.3000 C   0  0  0  0  0  0  0  0  0  0  0  0
   -4.7998   15.0028    0.9063 C   0  0  0  0  0  0  0  0  0  0  0  0
   -2.3668   14.9110    1.1964 C   0  0  0  0  0  0  0  0  0  0  0  0
   -3.3629   14.7492   -2.5503 C   0  0  0  0  0  0  0  0  0  0  0  0
   -3.6581   14.9950    1.6797 N   0  0  0  0  0  0  0  0  0  0  0  0
   -0.9258   14.7407   -0.7445 N   0  0  0  0  0  0  0  0  0  0  0  0
   -6.0321   15.0896    1.4936 N   0  0  0  0  0  0  0  0  0  0  0  0
   -1.3815   14.9077    1.9336 O   0  0  0  0  0  0  0  0  0  0  0  0
   -4.6294   14.7803   -3.0067 F   0  0  0  0  0  0  0  0  0  0  0  0
   -2.6944   15.7810   -3.0991 F   0  0  0  0  0  0  0  0  0  0  0  0
   -2.7918   13.6063   -2.9760 F   0  0  0  0  0  0  0  0  0  0  0  0
   -5.5157   14.9248   -1.0803 H   0  0  0  0  0  0  0  0  0  0  0  0
   -3.7764   15.0560    2.6868 H   0  0  0  0  0  0  0  0  0  0  0  0
   -0.7632   14.6796   -1.7257 H   0  0  0  0  0  0  0  0  0  0  0  0
   -0.1891   14.7452   -0.0743 H   0  0  0  0  0  0  0  0  0  0  0  0
   -6.8368   15.0927    0.9084 H   0  0  0  0  0  0  0  0  0  0  0  0
   -6.0813   15.1464    2.4854 H   0  0  0  0  0  0  0  0  0  0  0  0
  1  2  1  0  0  0  0
  1  4  2  0  0  0  0
  2  3  2  0  0  0  0
  2  6  1  0  0  0  0
  3  5  1  0  0  0  0
  3  8  1  0  0  0  0
  4  7  1  0  0  0  0
  4  9  1  0  0  0  0
  5  7  1  0  0  0  0
  5 10  2  0  0  0  0
  6 11  1  0  0  0  0
  6 12  1  0  0  0  0
  6 13  1  0  0  0  0
  1 14  1  0  0  0  0
  7 15  1  0  0  0  0
  8 16  1  0  0  0  0
  8 17  1  0  0  0  0
  9 18  1  0  0  0  0
  9 19  1  0  0  0  0
M  END
> <HYBRID receptor title>
5S18(A) > WOY(A-201)

> <HYBRID receptor filename>
experiments/data/docking/5s18.oedu

> <HYBRID Chemgauss4 score>
-7.116646

> <HYBRID receptor title>
5S18(A) > WOY(A-201)

> <HYBRID receptor filename>
experiments/data/docking/5s18.oedu

> <Dock Type>
Hybrid

$$$$
MOL0382
  -OEChem-07032415493D

 24 25  0     0  0  0  0  0  0999 V2000
   -2.1781   15.2043   -2.7043 C   0  0  0  0  0  0  0  0  0  0  0  0
   -0.9454   14.2159   -0.8765 C   0  0  0  0  0  0  0  0  0  0  0  0
   -1.0085   15.2600   -3.4622 C   0  0  0  0  0  0  0  0  0  0  0  0
    0.2242   14.2715   -1.6343 C   0  0  0  0  0  0  0  0  0  0  0  0
   -2.1465   14.6821   -1.4113 C   0  0  0  0  0  0  0  0  0  0  0  0
    0.1926   14.7938   -2.9273 C   0  0  0  0  0  0  0  0  0  0  0  0
   -4.6936   14.4680   -1.1934 C   0  0  0  0  0  0  0  0  0  0  0  0
   -3.2648   14.7154    0.7161 C   0  0  0  0  0  0  0  0  0  0  0  0
   -3.3660   14.6234   -0.6204 C   0  0  0  0  0  0  0  0  0  0  0  0
   -5.8102   14.4158   -0.4463 C   0  0  0  0  0  0  0  0  0  0  0  0
   -5.6673   14.5228    1.0472 C   0  0  0  0  0  0  0  0  0  0  0  0
   -4.3745   14.6678    1.5196 N   0  0  0  0  0  0  0  0  0  0  0  0
   -7.0768   14.2705   -0.9290 N   0  0  0  0  0  0  0  0  0  0  0  0
   -6.6508   14.4827    1.7843 O   0  0  0  0  0  0  0  0  0  0  0  0
    1.3152   14.8472   -3.6558 F   0  0  0  0  0  0  0  0  0  0  0  0
   -3.1061   15.5728   -3.1350 H   0  0  0  0  0  0  0  0  0  0  0  0
   -0.9055   13.8066    0.1303 H   0  0  0  0  0  0  0  0  0  0  0  0
   -1.0319   15.6676   -4.4686 H   0  0  0  0  0  0  0  0  0  0  0  0
    1.1594   13.9087   -1.2187 H   0  0  0  0  0  0  0  0  0  0  0  0
   -4.7578   14.3925   -2.2761 H   0  0  0  0  0  0  0  0  0  0  0  0
   -2.3218   14.8311    1.2383 H   0  0  0  0  0  0  0  0  0  0  0  0
   -4.2286   14.7435    2.5220 H   0  0  0  0  0  0  0  0  0  0  0  0
   -7.2074   14.1950   -1.9148 H   0  0  0  0  0  0  0  0  0  0  0  0
   -7.8351   14.2439   -0.2826 H   0  0  0  0  0  0  0  0  0  0  0  0
  1  3  2  0  0  0  0
  1  5  1  0  0  0  0
  2  4  1  0  0  0  0
  2  5  2  0  0  0  0
  3  6  1  0  0  0  0
  4  6  2  0  0  0  0
  5  9  1  0  0  0  0
  6 15  1  0  0  0  0
  7  9  1  0  0  0  0
  7 10  2  0  0  0  0
  8  9  2  0  0  0  0
  8 12  1  0  0  0  0
 10 11  1  0  0  0  0
 10 13  1  0  0  0  0
 11 12  1  0  0  0  0
 11 14  2  0  0  0  0
  1 16  1  0  0  0  0
  2 17  1  0  0  0  0
  3 18  1  0  0  0  0
  4 19  1  0  0  0  0
  7 20  1  0  0  0  0
  8 21  1  0  0  0  0
 12 22  1  0  0  0  0
 13 23  1  0  0  0  0
 13 24  1  0  0  0  0
M  END
> <HYBRID receptor title>
5S18(A) > WOY(A-201)

> <HYBRID receptor filename>
experiments/data/docking/5s18.oedu

> <HYBRID Chemgauss4 score>
-7.113871

> <HYBRID receptor title>
5S18(A) > WOY(A-201)

> <HYBRID receptor filename>
experiments/data/docking/5s18.oedu

> <Dock Type>
Hybrid

$$$$
MOL0217
  -OEChem-07032415493D

 17 17  0     0  0  0  0  0  0999 V2000
   -2.3854   14.7888   -0.1812 C   0  0  0  0  0  0  0  0  0  0  0  0
   -4.9495   14.5053    0.8496 C   0  0  0  0  0  0  0  0  0  0  0  0
   -3.4114   14.5086   -1.0052 C   0  0  0  0  0  0  0  0  0  0  0  0
   -4.7733   14.3554   -0.4758 C   0  0  0  0  0  0  0  0  0  0  0  0
   -2.6070   14.9495    1.2821 C   0  0  0  0  0  0  0  0  0  0  0  0
   -3.1733   14.3495   -2.4818 C   0  0  0  0  0  0  0  0  0  0  0  0
   -3.9129   14.7904    1.6986 N   0  0  0  0  0  0  0  0  0  0  0  0
   -5.8142   14.0702   -1.3186 N   0  0  0  0  0  0  0  0  0  0  0  0
   -1.6669   15.2044    2.0299 O   0  0  0  0  0  0  0  0  0  0  0  0
   -1.8710   14.5252   -2.7761 F   0  0  0  0  0  0  0  0  0  0  0  0
   -3.5345   13.1207   -2.8973 F   0  0  0  0  0  0  0  0  0  0  0  0
   -3.8865   15.2538   -3.1799 F   0  0  0  0  0  0  0  0  0  0  0  0
   -1.3694   14.9080   -0.5418 H   0  0  0  0  0  0  0  0  0  0  0  0
   -5.9192   14.4095    1.3249 H   0  0  0  0  0  0  0  0  0  0  0  0
   -4.1167   14.8901    2.6887 H   0  0  0  0  0  0  0  0  0  0  0  0
   -6.7240   13.9730   -0.9295 H   0  0  0  0  0  0  0  0  0  0  0  0
   -5.6227   13.9708   -2.2889 H   0  0  0  0  0  0  0  0  0  0  0  0
  1  3  2  0  0  0  0
  1  5  1  0  0  0  0
  2  4  2  0  0  0  0
  2  7  1  0  0  0  0
  3  4  1  0  0  0  0
  3  6  1  0  0  0  0
  4  8  1  0  0  0  0
  5  7  1  0  0  0  0
  5  9  2  0  0  0  0
  6 10  1  0  0  0  0
  6 11  1  0  0  0  0
  6 12  1  0  0  0  0
  1 13  1  0  0  0  0
  2 14  1  0  0  0  0
  7 15  1  0  0  0  0
  8 16  1  0  0  0  0
  8 17  1  0  0  0  0
M  END
> <HYBRID receptor title>
5S18(A) > WOY(A-201)

> <HYBRID receptor filename>
experiments/data/docking/5s18.oedu

> <HYBRID Chemgauss4 score>
-7.106574

> <HYBRID receptor title>
5S18(A) > WOY(A-201)

> <HYBRID receptor filename>
experiments/data/docking/5s18.oedu

> <Dock Type>
Hybrid

$$$$
MOL0093
  -OEChem-07032415493D

 24 25  0     0  0  0  0  0  0999 V2000
   -7.1704   14.1256    0.9938 C   0  0  0  0  0  0  0  0  0  0  0  0
   -5.8671   13.6989    1.0995 C   0  0  0  0  0  0  0  0  0  0  0  0
   -6.0223   15.5199   -0.1329 C   0  0  0  0  0  0  0  0  0  0  0  0
   -1.7531   14.4967   -1.1083 C   0  0  0  0  0  0  0  0  0  0  0  0
   -3.2047   14.5008   -1.0310 C   0  0  0  0  0  0  0  0  0  0  0  0
   -0.9611   14.5810   -0.0269 C   0  0  0  0  0  0  0  0  0  0  0  0
   -3.7821   14.5911    0.1838 C   0  0  0  0  0  0  0  0  0  0  0  0
   -1.6186   14.6832    1.3187 C   0  0  0  0  0  0  0  0  0  0  0  0
   -3.9322   14.3992   -2.3407 C   0  0  0  0  0  0  0  0  0  0  0  0
   -7.2603   15.2589    0.2256 N   0  0  0  0  0  0  0  0  0  0  0  0
   -5.1436   14.6022    0.3727 N   0  0  0  0  0  0  0  0  0  0  0  0
   -3.0020   14.6798    1.3179 N   0  0  0  0  0  0  0  0  0  0  0  0
    0.4019   14.5826   -0.0441 N   0  0  0  0  0  0  0  0  0  0  0  0
   -0.9496   14.7638    2.3474 O   0  0  0  0  0  0  0  0  0  0  0  0
   -3.0624   14.3214   -3.3669 F   0  0  0  0  0  0  0  0  0  0  0  0
   -4.7156   13.3036   -2.3745 F   0  0  0  0  0  0  0  0  0  0  0  0
   -4.7156   15.4777   -2.5388 F   0  0  0  0  0  0  0  0  0  0  0  0
   -8.0490   13.6738    1.4308 H   0  0  0  0  0  0  0  0  0  0  0  0
   -5.4149   12.8598    1.6110 H   0  0  0  0  0  0  0  0  0  0  0  0
   -5.7095   16.3510   -0.7514 H   0  0  0  0  0  0  0  0  0  0  0  0
   -1.3087   14.4212   -2.0977 H   0  0  0  0  0  0  0  0  0  0  0  0
   -3.4762   14.7473    2.2146 H   0  0  0  0  0  0  0  0  0  0  0  0
    0.8695   14.5165   -0.9225 H   0  0  0  0  0  0  0  0  0  0  0  0
    0.8914   14.6499    0.8217 H   0  0  0  0  0  0  0  0  0  0  0  0
  1  2  2  0  0  0  0
  1 10  1  0  0  0  0
  2 11  1  0  0  0  0
  3 10  2  0  0  0  0
  3 11  1  0  0  0  0
  4  5  1  0  0  0  0
  4  6  2  0  0  0  0
  5  7  2  0  0  0  0
  5  9  1  0  0  0  0
  6  8  1  0  0  0  0
  6 13  1  0  0  0  0
  7 11  1  0  0  0  0
  7 12  1  0  0  0  0
  8 12  1  0  0  0  0
  8 14  2  0  0  0  0
  9 15  1  0  0  0  0
  9 16  1  0  0  0  0
  9 17  1  0  0  0  0
  1 18  1  0  0  0  0
  2 19  1  0  0  0  0
  3 20  1  0  0  0  0
  4 21  1  0  0  0  0
 12 22  1  0  0  0  0
 13 23  1  0  0  0  0
 13 24  1  0  0  0  0
M  END
> <HYBRID receptor title>
5S18(A) > WOY(A-201)

> <HYBRID receptor filename>
experiments/data/docking/5s18.oedu

> <HYBRID Chemgauss4 score>
-7.095145

> <HYBRID receptor title>
5S18(A) > WOY(A-201)

> <HYBRID receptor filename>
experiments/data/docking/5s18.oedu

> <Dock Type>
Hybrid

$$$$
MOL0059
  -OEChem-07032415493D

 30 31  0     0  0  0  0  0  0999 V2000
   -1.8488   14.7001   -1.1209 C   0  0  0  0  0  0  0  0  0  0  0  0
   -3.7312   14.7571    0.3657 C   0  0  0  0  0  0  0  0  0  0  0  0
   -3.2797   14.6775   -0.8935 C   0  0  0  0  0  0  0  0  0  0  0  0
   -0.9593   14.7973   -0.1178 C   0  0  0  0  0  0  0  0  0  0  0  0
   -1.4862   14.8858    1.2900 C   0  0  0  0  0  0  0  0  0  0  0  0
   -6.2816   13.1138   -3.5626 C   0  0  0  0  0  0  0  0  0  0  0  0
   -6.5978   14.3934   -2.7933 C   0  0  0  0  0  0  0  0  0  0  0  0
   -4.8270   13.0780   -4.0230 C   0  0  0  0  0  0  0  0  0  0  0  0
   -5.6359   14.6011   -1.6262 C   0  0  0  0  0  0  0  0  0  0  0  0
   -3.8635   13.2824   -2.8566 C   0  0  0  0  0  0  0  0  0  0  0  0
   -4.1776   14.5659   -2.0874 C   0  0  0  0  0  0  0  0  0  0  0  0
   -2.8649   14.8578    1.4227 N   0  0  0  0  0  0  0  0  0  0  0  0
    0.3956   14.8236   -0.2647 N   0  0  0  0  0  0  0  0  0  0  0  0
   -0.7219   14.9764    2.2489 O   0  0  0  0  0  0  0  0  0  0  0  0
   -1.5049   14.6348   -2.1497 H   0  0  0  0  0  0  0  0  0  0  0  0
   -4.7836   14.7470    0.6211 H   0  0  0  0  0  0  0  0  0  0  0  0
   -6.4883   12.2433   -2.9294 H   0  0  0  0  0  0  0  0  0  0  0  0
   -6.9439   13.0381   -4.4342 H   0  0  0  0  0  0  0  0  0  0  0  0
   -6.5430   15.2509   -3.4722 H   0  0  0  0  0  0  0  0  0  0  0  0
   -7.6274   14.3488   -2.4208 H   0  0  0  0  0  0  0  0  0  0  0  0
   -4.6209   12.1192   -4.5131 H   0  0  0  0  0  0  0  0  0  0  0  0
   -4.6630   13.8585   -4.7742 H   0  0  0  0  0  0  0  0  0  0  0  0
   -5.8346   15.5807   -1.1896 H   0  0  0  0  0  0  0  0  0  0  0  0
   -5.8259   13.8588   -0.8529 H   0  0  0  0  0  0  0  0  0  0  0  0
   -3.8864   12.4116   -2.2012 H   0  0  0  0  0  0  0  0  0  0  0  0
   -2.8499   13.3564   -3.2558 H   0  0  0  0  0  0  0  0  0  0  0  0
   -3.9860   15.4167   -2.7186 H   0  0  0  0  0  0  0  0  0  0  0  0
   -3.2566   14.9154    2.3582 H   0  0  0  0  0  0  0  0  0  0  0  0
    0.7786   14.7672   -1.1839 H   0  0  0  0  0  0  0  0  0  0  0  0
    0.9641   14.8984    0.5508 H   0  0  0  0  0  0  0  0  0  0  0  0
  1  3  1  0  0  0  0
  1  4  2  0  0  0  0
  2  3  2  0  0  0  0
  2 12  1  0  0  0  0
  3 11  1  0  0  0  0
  4  5  1  0  0  0  0
  4 13  1  0  0  0  0
  5 12  1  0  0  0  0
  5 14  2  0  0  0  0
  6  7  1  0  0  0  0
  6  8  1  0  0  0  0
  7  9  1  0  0  0  0
  8 10  1  0  0  0  0
  9 11  1  0  0  0  0
 10 11  1  0  0  0  0
  1 15  1  0  0  0  0
  2 16  1  0  0  0  0
  6 17  1  0  0  0  0
  6 18  1  0  0  0  0
  7 19  1  0  0  0  0
  7 20  1  0  0  0  0
  8 21  1  0  0  0  0
  8 22  1  0  0  0  0
  9 23  1  0  0  0  0
  9 24  1  0  0  0  0
 10 25  1  0  0  0  0
 10 26  1  0  0  0  0
 11 27  1  0  0  0  0
 12 28  1  0  0  0  0
 13 29  1  0  0  0  0
 13 30  1  0  0  0  0
M  END
> <HYBRID receptor title>
5S18(A) > WOY(A-201)

> <HYBRID receptor filename>
experiments/data/docking/5s18.oedu

> <HYBRID Chemgauss4 score>
-7.091662

> <HYBRID receptor title>
5S18(A) > WOY(A-201)

> <HYBRID receptor filename>
experiments/data/docking/5s18.oedu

> <Dock Type>
Hybrid

$$$$
MOL0225
  -OEChem-07032415493D

 18 18  0     0  0  0  0  0  0999 V2000
   -2.0210   15.1574   -0.3550 C   0  0  0  0  0  0  0  0  0  0  0  0
   -4.4329   14.7682    0.9788 C   0  0  0  0  0  0  0  0  0  0  0  0
   -3.1500   14.9580   -1.0593 C   0  0  0  0  0  0  0  0  0  0  0  0
   -4.4212   14.7526   -0.3646 C   0  0  0  0  0  0  0  0  0  0  0  0
   -2.0473   15.1726    1.1347 C   0  0  0  0  0  0  0  0  0  0  0  0
   -3.1218   14.9431   -2.5611 C   0  0  0  0  0  0  0  0  0  0  0  0
   -5.6803   14.5298   -1.1495 C   0  0  0  0  0  0  0  0  0  0  0  0
   -3.2888   14.9706    1.7066 N   0  0  0  0  0  0  0  0  0  0  0  0
   -1.0139   15.3554    1.7731 O   0  0  0  0  0  0  0  0  0  0  0  0
   -6.7354   14.3623   -0.3274 F   0  0  0  0  0  0  0  0  0  0  0  0
   -5.9422   15.5794   -1.9534 F   0  0  0  0  0  0  0  0  0  0  0  0
   -5.5764   13.4302   -1.9224 F   0  0  0  0  0  0  0  0  0  0  0  0
   -1.0603   15.3132   -0.8333 H   0  0  0  0  0  0  0  0  0  0  0  0
   -5.3332   14.6239    1.5639 H   0  0  0  0  0  0  0  0  0  0  0  0
   -2.9447   13.9284   -2.9084 H   0  0  0  0  0  0  0  0  0  0  0  0
   -2.3268   15.5949   -2.9146 H   0  0  0  0  0  0  0  0  0  0  0  0
   -4.0748   15.3002   -2.9433 H   0  0  0  0  0  0  0  0  0  0  0  0
   -3.3688   14.9704    2.7193 H   0  0  0  0  0  0  0  0  0  0  0  0
  1  3  2  0  0  0  0
  1  5  1  0  0  0  0
  2  4  2  0  0  0  0
  2  8  1  0  0  0  0
  3  4  1  0  0  0  0
  3  6  1  0  0  0  0
  4  7  1  0  0  0  0
  5  8  1  0  0  0  0
  5  9  2  0  0  0  0
  7 10  1  0  0  0  0
  7 11  1  0  0  0  0
  7 12  1  0  0  0  0
  1 13  1  0  0  0  0
  2 14  1  0  0  0  0
  6 15  1  0  0  0  0
  6 16  1  0  0  0  0
  6 17  1  0  0  0  0
  8 18  1  0  0  0  0
M  END
> <HYBRID receptor title>
5S18(A) > WOY(A-201)

> <HYBRID receptor filename>
experiments/data/docking/5s18.oedu

> <HYBRID Chemgauss4 score>
-7.080744

> <HYBRID receptor title>
5S18(A) > WOY(A-201)

> <HYBRID receptor filename>
experiments/data/docking/5s18.oedu

> <Dock Type>
Hybrid

$$$$
MOL0008
  -OEChem-07032415493D

 21 22  0     0  0  0  0  0  0999 V2000
   -2.6435   14.8388   -0.8807 C   0  0  0  0  0  0  0  0  0  0  0  0
   -4.1812   14.9568    0.9572 C   0  0  0  0  0  0  0  0  0  0  0  0
   -3.9939   14.9609   -0.3697 C   0  0  0  0  0  0  0  0  0  0  0  0
   -1.5739   14.7214   -0.0750 C   0  0  0  0  0  0  0  0  0  0  0  0
   -1.8051   14.7190    1.4130 C   0  0  0  0  0  0  0  0  0  0  0  0
   -5.1888   14.0241   -2.4180 C   0  0  0  0  0  0  0  0  0  0  0  0
   -6.2016   14.1038   -1.3156 C   0  0  0  0  0  0  0  0  0  0  0  0
   -5.0754   15.0824   -1.3712 C   0  0  0  0  0  0  0  0  0  0  0  0
   -3.1236   14.8399    1.8205 N   0  0  0  0  0  0  0  0  0  0  0  0
   -0.2814   14.6029   -0.4915 N   0  0  0  0  0  0  0  0  0  0  0  0
   -0.8663   14.6151    2.2006 O   0  0  0  0  0  0  0  0  0  0  0  0
   -2.5109   14.8440   -1.9596 H   0  0  0  0  0  0  0  0  0  0  0  0
   -5.1571   15.0439    1.4189 H   0  0  0  0  0  0  0  0  0  0  0  0
   -4.5064   13.1825   -2.4130 H   0  0  0  0  0  0  0  0  0  0  0  0
   -5.4954   14.3412   -3.4078 H   0  0  0  0  0  0  0  0  0  0  0  0
   -7.1888   14.4749   -1.5643 H   0  0  0  0  0  0  0  0  0  0  0  0
   -6.1970   13.3170   -0.5707 H   0  0  0  0  0  0  0  0  0  0  0  0
   -5.2898   16.0998   -1.6413 H   0  0  0  0  0  0  0  0  0  0  0  0
   -3.3283   14.8432    2.8155 H   0  0  0  0  0  0  0  0  0  0  0  0
   -0.0925   14.6012   -1.4708 H   0  0  0  0  0  0  0  0  0  0  0  0
    0.4370   14.5217    0.1948 H   0  0  0  0  0  0  0  0  0  0  0  0
  1  3  1  0  0  0  0
  1  4  2  0  0  0  0
  2  3  2  0  0  0  0
  2  9  1  0  0  0  0
  3  8  1  0  0  0  0
  4  5  1  0  0  0  0
  4 10  1  0  0  0  0
  5  9  1  0  0  0  0
  5 11  2  0  0  0  0
  6  7  1  0  0  0  0
  6  8  1  0  0  0  0
  7  8  1  0  0  0  0
  1 12  1  0  0  0  0
  2 13  1  0  0  0  0
  6 14  1  0  0  0  0
  6 15  1  0  0  0  0
  7 16  1  0  0  0  0
  7 17  1  0  0  0  0
  8 18  1  0  0  0  0
  9 19  1  0  0  0  0
 10 20  1  0  0  0  0
 10 21  1  0  0  0  0
M  END
> <HYBRID receptor title>
5S18(A) > WOY(A-201)

> <HYBRID receptor filename>
experiments/data/docking/5s18.oedu

> <HYBRID Chemgauss4 score>
-7.078121

> <HYBRID receptor title>
5S18(A) > WOY(A-201)

> <HYBRID receptor filename>
experiments/data/docking/5s18.oedu

> <Dock Type>
Hybrid

$$$$
MOL0317
  -OEChem-07032415493D

 22 22  0     0  0  0  0  0  0999 V2000
   -3.1394   14.5738   -1.2571 C   0  0  0  0  0  0  0  0  0  0  0  0
   -4.6931   14.5661    0.5771 C   0  0  0  0  0  0  0  0  0  0  0  0
   -2.0842   14.6278   -0.4286 C   0  0  0  0  0  0  0  0  0  0  0  0
   -4.4981   14.5410   -0.7495 C   0  0  0  0  0  0  0  0  0  0  0  0
   -2.3087   14.6555    1.0506 C   0  0  0  0  0  0  0  0  0  0  0  0
   -0.7482   14.6565   -1.0299 C   0  0  0  0  0  0  0  0  0  0  0  0
   -0.5767   13.9530   -2.3649 C   0  0  0  0  0  0  0  0  0  0  0  0
   -5.6132   14.4799   -1.7446 C   0  0  0  0  0  0  0  0  0  0  0  0
    0.3274   15.2223   -0.5495 N   0  0  0  0  0  0  0  0  0  0  0  0
   -3.6351   14.6215    1.4492 N   0  0  0  0  0  0  0  0  0  0  0  0
   -1.3639   14.7045    1.8345 O   0  0  0  0  0  0  0  0  0  0  0  0
    1.4142   15.0388   -1.4060 O   0  0  0  0  0  0  0  0  0  0  0  0
   -5.1361   14.4652   -3.0070 F   0  0  0  0  0  0  0  0  0  0  0  0
   -6.3607   13.3695   -1.5738 F   0  0  0  0  0  0  0  0  0  0  0  0
   -6.4295   15.5481   -1.6247 F   0  0  0  0  0  0  0  0  0  0  0  0
   -3.0110   14.5523   -2.3357 H   0  0  0  0  0  0  0  0  0  0  0  0
   -5.6753   14.5449    1.0329 H   0  0  0  0  0  0  0  0  0  0  0  0
   -0.7752   14.6573   -3.1781 H   0  0  0  0  0  0  0  0  0  0  0  0
    0.4379   13.5624   -2.4797 H   0  0  0  0  0  0  0  0  0  0  0  0
   -1.2842   13.1209   -2.4342 H   0  0  0  0  0  0  0  0  0  0  0  0
   -3.8361   14.6385    2.4448 H   0  0  0  0  0  0  0  0  0  0  0  0
    2.1214   15.5027   -0.9268 H   0  0  0  0  0  0  0  0  0  0  0  0
  1  3  2  0  0  0  0
  1  4  1  0  0  0  0
  2  4  2  0  0  0  0
  2 10  1  0  0  0  0
  3  5  1  0  0  0  0
  3  6  1  0  0  0  0
  4  8  1  0  0  0  0
  5 10  1  0  0  0  0
  5 11  2  0  0  0  0
  6  7  1  0  0  0  0
  6  9  2  0  0  0  0
  8 13  1  0  0  0  0
  8 14  1  0  0  0  0
  8 15  1  0  0  0  0
  9 12  1  0  0  0  0
  1 16  1  0  0  0  0
  2 17  1  0  0  0  0
  7 18  1  0  0  0  0
  7 19  1  0  0  0  0
  7 20  1  0  0  0  0
 10 21  1  0  0  0  0
 12 22  1  0  0  0  0
M  END
> <HYBRID receptor title>
5S18(A) > WOY(A-201)

> <HYBRID receptor filename>
experiments/data/docking/5s18.oedu

> <HYBRID Chemgauss4 score>
-7.077588

> <HYBRID receptor title>
5S18(A) > WOY(A-201)

> <HYBRID receptor filename>
experiments/data/docking/5s18.oedu

> <Dock Type>
Hybrid

$$$$
MOL0029
  -OEChem-07032415493D

 27 28  0     0  0  0  0  0  0999 V2000
   -2.8843   14.6964   -0.9390 C   0  0  0  0  0  0  0  0  0  0  0  0
   -4.3590   15.1182    0.9059 C   0  0  0  0  0  0  0  0  0  0  0  0
   -4.2086   14.9674   -0.4171 C   0  0  0  0  0  0  0  0  0  0  0  0
   -1.8033   14.5904   -0.1470 C   0  0  0  0  0  0  0  0  0  0  0  0
   -1.9928   14.7632    1.3368 C   0  0  0  0  0  0  0  0  0  0  0  0
   -7.1397   13.8820   -0.2829 C   0  0  0  0  0  0  0  0  0  0  0  0
   -6.3622   12.8971   -1.1551 C   0  0  0  0  0  0  0  0  0  0  0  0
   -6.6597   15.2782   -0.6767 C   0  0  0  0  0  0  0  0  0  0  0  0
   -5.5368   13.7458   -2.1163 C   0  0  0  0  0  0  0  0  0  0  0  0
   -5.3238   15.0627   -1.3789 C   0  0  0  0  0  0  0  0  0  0  0  0
   -3.2882   15.0198    1.7553 N   0  0  0  0  0  0  0  0  0  0  0  0
   -0.5339   14.3374   -0.5745 N   0  0  0  0  0  0  0  0  0  0  0  0
   -1.0421   14.6775    2.1119 O   0  0  0  0  0  0  0  0  0  0  0  0
   -2.7853   14.5780   -2.0147 H   0  0  0  0  0  0  0  0  0  0  0  0
   -5.3131   15.3225    1.3758 H   0  0  0  0  0  0  0  0  0  0  0  0
   -8.2205   13.7837   -0.4293 H   0  0  0  0  0  0  0  0  0  0  0  0
   -6.9350   13.6867    0.7760 H   0  0  0  0  0  0  0  0  0  0  0  0
   -5.7041   12.2854   -0.5265 H   0  0  0  0  0  0  0  0  0  0  0  0
   -7.0274   12.2134   -1.6920 H   0  0  0  0  0  0  0  0  0  0  0  0
   -7.3786   15.7162   -1.3812 H   0  0  0  0  0  0  0  0  0  0  0  0
   -6.6025   15.9491    0.1872 H   0  0  0  0  0  0  0  0  0  0  0  0
   -4.6065   13.2471   -2.4082 H   0  0  0  0  0  0  0  0  0  0  0  0
   -6.1172   13.9229   -3.0309 H   0  0  0  0  0  0  0  0  0  0  0  0
   -5.1151   15.8725   -2.0805 H   0  0  0  0  0  0  0  0  0  0  0  0
   -3.4540   15.1420    2.7500 H   0  0  0  0  0  0  0  0  0  0  0  0
   -0.3728   14.2179   -1.5514 H   0  0  0  0  0  0  0  0  0  0  0  0
    0.1962   14.2793    0.1018 H   0  0  0  0  0  0  0  0  0  0  0  0
  1  3  1  0  0  0  0
  1  4  2  0  0  0  0
  2  3  2  0  0  0  0
  2 11  1  0  0  0  0
  3 10  1  0  0  0  0
  4  5  1  0  0  0  0
  4 12  1  0  0  0  0
  5 11  1  0  0  0  0
  5 13  2  0  0  0  0
  6  7  1  0  0  0  0
  6  8  1  0  0  0  0
  7  9  1  0  0  0  0
  8 10  1  0  0  0  0
  9 10  1  0  0  0  0
  1 14  1  0  0  0  0
  2 15  1  0  0  0  0
  6 16  1  0  0  0  0
  6 17  1  0  0  0  0
  7 18  1  0  0  0  0
  7 19  1  0  0  0  0
  8 20  1  0  0  0  0
  8 21  1  0  0  0  0
  9 22  1  0  0  0  0
  9 23  1  0  0  0  0
 10 24  1  0  0  0  0
 11 25  1  0  0  0  0
 12 26  1  0  0  0  0
 12 27  1  0  0  0  0
M  END
> <HYBRID receptor title>
5S18(A) > WOY(A-201)

> <HYBRID receptor filename>
experiments/data/docking/5s18.oedu

> <HYBRID Chemgauss4 score>
-7.074060

> <HYBRID receptor title>
5S18(A) > WOY(A-201)

> <HYBRID receptor filename>
experiments/data/docking/5s18.oedu

> <Dock Type>
Hybrid

$$$$
MOL0044
  -OEChem-07032415493D

 22 22  0     0  0  0  0  0  0999 V2000
   -2.4896   14.9050   -0.9756 C   0  0  0  0  0  0  0  0  0  0  0  0
   -4.0987   15.0791    0.8398 C   0  0  0  0  0  0  0  0  0  0  0  0
   -1.4974   14.8353   -0.0809 C   0  0  0  0  0  0  0  0  0  0  0  0
   -3.8273   15.0306   -0.4680 C   0  0  0  0  0  0  0  0  0  0  0  0
   -1.7267   14.8819    1.3886 C   0  0  0  0  0  0  0  0  0  0  0  0
   -4.5353   15.0480   -2.8260 C   0  0  0  0  0  0  0  0  0  0  0  0
   -6.2259   14.9795   -1.0211 C   0  0  0  0  0  0  0  0  0  0  0  0
   -3.0669   15.0060    1.7514 N   0  0  0  0  0  0  0  0  0  0  0  0
   -0.1843   14.7144   -0.4506 N   0  0  0  0  0  0  0  0  0  0  0  0
   -4.8285   15.1001   -1.4033 N   0  0  0  0  0  0  0  0  0  0  0  0
   -0.8068   14.8161    2.1994 O   0  0  0  0  0  0  0  0  0  0  0  0
   -2.3071   14.8695   -2.0441 H   0  0  0  0  0  0  0  0  0  0  0  0
   -5.0941   15.1737    1.2553 H   0  0  0  0  0  0  0  0  0  0  0  0
   -5.4567   15.1170   -3.4114 H   0  0  0  0  0  0  0  0  0  0  0  0
   -3.8782   15.8758   -3.1069 H   0  0  0  0  0  0  0  0  0  0  0  0
   -4.0316   14.1095   -3.0736 H   0  0  0  0  0  0  0  0  0  0  0  0
   -6.8731   15.0596   -1.8992 H   0  0  0  0  0  0  0  0  0  0  0  0
   -6.4042   14.0133   -0.5407 H   0  0  0  0  0  0  0  0  0  0  0  0
   -6.4936   15.7699   -0.3144 H   0  0  0  0  0  0  0  0  0  0  0  0
   -3.2956   15.0447    2.7403 H   0  0  0  0  0  0  0  0  0  0  0  0
    0.0318   14.6779   -1.4204 H   0  0  0  0  0  0  0  0  0  0  0  0
    0.5050   14.6678    0.2638 H   0  0  0  0  0  0  0  0  0  0  0  0
  1  3  2  0  0  0  0
  1  4  1  0  0  0  0
  2  4  2  0  0  0  0
  2  8  1  0  0  0  0
  3  5  1  0  0  0  0
  3  9  1  0  0  0  0
  4 10  1  0  0  0  0
  5  8  1  0  0  0  0
  5 11  2  0  0  0  0
  6 10  1  0  0  0  0
  7 10  1  0  0  0  0
  1 12  1  0  0  0  0
  2 13  1  0  0  0  0
  6 14  1  0  0  0  0
  6 15  1  0  0  0  0
  6 16  1  0  0  0  0
  7 17  1  0  0  0  0
  7 18  1  0  0  0  0
  7 19  1  0  0  0  0
  8 20  1  0  0  0  0
  9 21  1  0  0  0  0
  9 22  1  0  0  0  0
M  END
> <HYBRID receptor title>
5S18(A) > WOY(A-201)

> <HYBRID receptor filename>
experiments/data/docking/5s18.oedu

> <HYBRID Chemgauss4 score>
-7.073706

> <HYBRID receptor title>
5S18(A) > WOY(A-201)

> <HYBRID receptor filename>
experiments/data/docking/5s18.oedu

> <Dock Type>
Hybrid

$$$$
MOL0378
  -OEChem-07032415493D

 26 26  0     0  0  0  0  0  0999 V2000
   -1.2841   14.2667   -2.1399 C   0  0  0  0  0  0  0  0  0  0  0  0
    1.1059   14.1664   -1.9540 C   0  0  0  0  0  0  0  0  0  0  0  0
    0.0223   14.0775   -2.7374 C   0  0  0  0  0  0  0  0  0  0  0  0
   -1.4492   14.5280   -0.8317 C   0  0  0  0  0  0  0  0  0  0  0  0
   -0.2196   14.6239    0.0321 C   0  0  0  0  0  0  0  0  0  0  0  0
   -3.8699   14.6436   -0.9475 C   0  0  0  0  0  0  0  0  0  0  0  0
   -6.2133   14.1194    1.8595 C   0  0  0  0  0  0  0  0  0  0  0  0
   -5.0549   14.8871   -0.0360 C   0  0  0  0  0  0  0  0  0  0  0  0
    0.0867   13.7918   -4.2041 C   0  0  0  0  0  0  0  0  0  0  0  0
    0.9903   14.4306   -0.6143 N   0  0  0  0  0  0  0  0  0  0  0  0
   -2.6684   14.7092   -0.2531 N   0  0  0  0  0  0  0  0  0  0  0  0
   -0.3105   14.8604    1.2353 O   0  0  0  0  0  0  0  0  0  0  0  0
   -3.9948   14.4185   -2.1486 O   0  0  0  0  0  0  0  0  0  0  0  0
   -5.1069   13.9143    0.9862 O   0  0  0  0  0  0  0  0  0  0  0  0
   -1.1489   13.7580   -4.7462 F   0  0  0  0  0  0  0  0  0  0  0  0
    0.7964   14.7367   -4.8558 F   0  0  0  0  0  0  0  0  0  0  0  0
    0.6736   12.5997   -4.4411 F   0  0  0  0  0  0  0  0  0  0  0  0
   -2.1474   14.1897   -2.7958 H   0  0  0  0  0  0  0  0  0  0  0  0
    2.1167   14.0381   -2.3213 H   0  0  0  0  0  0  0  0  0  0  0  0
   -6.2163   13.3474    2.6334 H   0  0  0  0  0  0  0  0  0  0  0  0
   -6.1191   15.1019    2.3284 H   0  0  0  0  0  0  0  0  0  0  0  0
   -7.1428   14.0796    1.2868 H   0  0  0  0  0  0  0  0  0  0  0  0
   -5.9777   14.8268   -0.6204 H   0  0  0  0  0  0  0  0  0  0  0  0
   -4.9825   15.8814    0.4157 H   0  0  0  0  0  0  0  0  0  0  0  0
    1.8475   14.4859   -0.0720 H   0  0  0  0  0  0  0  0  0  0  0  0
   -2.6797   14.9022    0.7460 H   0  0  0  0  0  0  0  0  0  0  0  0
  1  3  1  0  0  0  0
  1  4  2  0  0  0  0
  2  3  2  0  0  0  0
  2 10  1  0  0  0  0
  3  9  1  0  0  0  0
  4  5  1  0  0  0  0
  4 11  1  0  0  0  0
  5 10  1  0  0  0  0
  5 12  2  0  0  0  0
  6  8  1  0  0  0  0
  6 11  1  0  0  0  0
  6 13  2  0  0  0  0
  7 14  1  0  0  0  0
  8 14  1  0  0  0  0
  9 15  1  0  0  0  0
  9 16  1  0  0  0  0
  9 17  1  0  0  0  0
  1 18  1  0  0  0  0
  2 19  1  0  0  0  0
  7 20  1  0  0  0  0
  7 21  1  0  0  0  0
  7 22  1  0  0  0  0
  8 23  1  0  0  0  0
  8 24  1  0  0  0  0
 10 25  1  0  0  0  0
 11 26  1  0  0  0  0
M  END
> <HYBRID receptor title>
5S18(A) > WOY(A-201)

> <HYBRID receptor filename>
experiments/data/docking/5s18.oedu

> <HYBRID Chemgauss4 score>
-7.070937

> <HYBRID receptor title>
5S18(A) > WOY(A-201)

> <HYBRID receptor filename>
experiments/data/docking/5s18.oedu

> <Dock Type>
Hybrid

$$$$
MOL0372
  -OEChem-07032415493D

 28 29  0     0  0  0  0  0  0999 V2000
   -3.6401   14.7592   -1.3643 C   0  0  0  0  0  0  0  0  0  0  0  0
   -4.9143   14.7805    0.6686 C   0  0  0  0  0  0  0  0  0  0  0  0
   -4.9094   14.6922   -0.6685 C   0  0  0  0  0  0  0  0  0  0  0  0
   -2.4697   14.9060   -0.7196 C   0  0  0  0  0  0  0  0  0  0  0  0
   -2.4961   15.0035    0.7828 C   0  0  0  0  0  0  0  0  0  0  0  0
   -0.9047   16.0209   -2.2807 C   0  0  0  0  0  0  0  0  0  0  0  0
   -0.1216   14.1392   -0.8887 C   0  0  0  0  0  0  0  0  0  0  0  0
   -0.1302   15.4099   -3.4424 C   0  0  0  0  0  0  0  0  0  0  0  0
    0.6164   13.6143   -2.1135 C   0  0  0  0  0  0  0  0  0  0  0  0
   -6.1491   14.5273   -1.4886 C   0  0  0  0  0  0  0  0  0  0  0  0
   -3.7479   14.9311    1.3718 N   0  0  0  0  0  0  0  0  0  0  0  0
   -1.2435   14.9757   -1.3147 N   0  0  0  0  0  0  0  0  0  0  0  0
   -1.4581   15.1386    1.4280 O   0  0  0  0  0  0  0  0  0  0  0  0
    1.0085   14.6920   -2.9647 O   0  0  0  0  0  0  0  0  0  0  0  0
   -5.8556   14.4662   -2.8046 F   0  0  0  0  0  0  0  0  0  0  0  0
   -6.8059   13.3950   -1.1604 F   0  0  0  0  0  0  0  0  0  0  0  0
   -6.9953   15.5624   -1.3027 F   0  0  0  0  0  0  0  0  0  0  0  0
   -3.6596   14.6859   -2.4484 H   0  0  0  0  0  0  0  0  0  0  0  0
   -5.8185   14.7394    1.2632 H   0  0  0  0  0  0  0  0  0  0  0  0
   -0.2873   16.7734   -1.7755 H   0  0  0  0  0  0  0  0  0  0  0  0
   -1.7997   16.5246   -2.6636 H   0  0  0  0  0  0  0  0  0  0  0  0
   -0.4557   13.2955   -0.2740 H   0  0  0  0  0  0  0  0  0  0  0  0
    0.5548   14.7503   -0.2790 H   0  0  0  0  0  0  0  0  0  0  0  0
   -0.7627   14.7424   -4.0399 H   0  0  0  0  0  0  0  0  0  0  0  0
    0.2313   16.2024   -4.1055 H   0  0  0  0  0  0  0  0  0  0  0  0
    1.5255   13.0900   -1.8024 H   0  0  0  0  0  0  0  0  0  0  0  0
    0.0023   12.9028   -2.6787 H   0  0  0  0  0  0  0  0  0  0  0  0
   -3.8044   14.9932    2.3841 H   0  0  0  0  0  0  0  0  0  0  0  0
  1  3  1  0  0  0  0
  1  4  2  0  0  0  0
  2  3  2  0  0  0  0
  2 11  1  0  0  0  0
  3 10  1  0  0  0  0
  4  5  1  0  0  0  0
  4 12  1  0  0  0  0
  5 11  1  0  0  0  0
  5 13  2  0  0  0  0
  6  8  1  0  0  0  0
  6 12  1  0  0  0  0
  7  9  1  0  0  0  0
  7 12  1  0  0  0  0
  8 14  1  0  0  0  0
  9 14  1  0  0  0  0
 10 15  1  0  0  0  0
 10 16  1  0  0  0  0
 10 17  1  0  0  0  0
  1 18  1  0  0  0  0
  2 19  1  0  0  0  0
  6 20  1  0  0  0  0
  6 21  1  0  0  0  0
  7 22  1  0  0  0  0
  7 23  1  0  0  0  0
  8 24  1  0  0  0  0
  8 25  1  0  0  0  0
  9 26  1  0  0  0  0
  9 27  1  0  0  0  0
 11 28  1  0  0  0  0
M  END
> <HYBRID receptor title>
5S18(A) > WOY(A-201)

> <HYBRID receptor filename>
experiments/data/docking/5s18.oedu

> <HYBRID Chemgauss4 score>
-7.070341

> <HYBRID receptor title>
5S18(A) > WOY(A-201)

> <HYBRID receptor filename>
experiments/data/docking/5s18.oedu

> <Dock Type>
Hybrid

$$$$
MOL0116
  -OEChem-07032415493D

 17 17  0     0  0  0  0  0  0999 V2000
   -3.6330   14.7742   -0.8894 C   0  0  0  0  0  0  0  0  0  0  0  0
   -4.9751   14.6366   -0.3447 C   0  0  0  0  0  0  0  0  0  0  0  0
   -2.5381   14.9026   -0.1225 C   0  0  0  0  0  0  0  0  0  0  0  0
   -5.1283   14.6387    0.9935 C   0  0  0  0  0  0  0  0  0  0  0  0
   -2.7241   14.9026    1.3658 C   0  0  0  0  0  0  0  0  0  0  0  0
   -6.0632   14.5044   -1.3723 C   0  0  0  0  0  0  0  0  0  0  0  0
   -4.0266   14.7688    1.8096 N   0  0  0  0  0  0  0  0  0  0  0  0
   -1.2615   15.0343   -0.5814 N   0  0  0  0  0  0  0  0  0  0  0  0
   -1.7644   15.0164    2.1261 O   0  0  0  0  0  0  0  0  0  0  0  0
   -6.0737   15.5864   -2.1815 F   0  0  0  0  0  0  0  0  0  0  0  0
   -5.8394   13.4239   -2.1504 F   0  0  0  0  0  0  0  0  0  0  0  0
   -6.7638   14.4747    1.8845 Br  0  0  0  0  0  0  0  0  0  0  0  0
   -3.5327   14.7706   -1.9721 H   0  0  0  0  0  0  0  0  0  0  0  0
   -7.0274   14.4068   -0.8850 H   0  0  0  0  0  0  0  0  0  0  0  0
   -4.1827   14.7663    2.8133 H   0  0  0  0  0  0  0  0  0  0  0  0
   -1.1049   15.0381   -1.5664 H   0  0  0  0  0  0  0  0  0  0  0  0
   -0.5215   15.1230    0.0808 H   0  0  0  0  0  0  0  0  0  0  0  0
  1  2  1  0  0  0  0
  1  3  2  0  0  0  0
  2  4  2  0  0  0  0
  2  6  1  0  0  0  0
  3  5  1  0  0  0  0
  3  8  1  0  0  0  0
  4  7  1  0  0  0  0
  4 12  1  0  0  0  0
  5  7  1  0  0  0  0
  5  9  2  0  0  0  0
  6 10  1  0  0  0  0
  6 11  1  0  0  0  0
  1 13  1  0  0  0  0
  6 14  1  0  0  0  0
  7 15  1  0  0  0  0
  8 16  1  0  0  0  0
  8 17  1  0  0  0  0
M  END
> <HYBRID receptor title>
5S18(A) > WOY(A-201)

> <HYBRID receptor filename>
experiments/data/docking/5s18.oedu

> <HYBRID Chemgauss4 score>
-7.069202

> <HYBRID receptor title>
5S18(A) > WOY(A-201)

> <HYBRID receptor filename>
experiments/data/docking/5s18.oedu

> <Dock Type>
Hybrid

$$$$
MOL0058
  -OEChem-07032415493D

 26 26  0     1  0  0  0  0  0999 V2000
   -2.4554   14.6274   -1.0854 C   0  0  0  0  0  0  0  0  0  0  0  0
   -4.0772   15.0794    0.6240 C   0  0  0  0  0  0  0  0  0  0  0  0
   -3.8163   14.9162   -0.6802 C   0  0  0  0  0  0  0  0  0  0  0  0
   -1.4470   14.5169   -0.2034 C   0  0  0  0  0  0  0  0  0  0  0  0
   -1.7603   14.7038    1.2576 C   0  0  0  0  0  0  0  0  0  0  0  0
   -7.3266   15.5495   -2.1171 C   0  0  0  0  0  0  0  0  0  0  0  0
   -4.8798   13.7047   -2.5275 C   0  0  0  0  0  0  0  0  0  0  0  0
   -6.2080   15.3565   -1.1047 C   0  0  0  0  0  0  0  0  0  0  0  0
   -4.8582   15.0162   -1.7484 C   0  0  1  0  0  0  0  0  0  0  0  0
   -3.0838   14.9769    1.5623 N   0  0  0  0  0  0  0  0  0  0  0  0
   -0.1486   14.2475   -0.5192 N   0  0  0  0  0  0  0  0  0  0  0  0
   -0.8801   14.6148    2.1116 O   0  0  0  0  0  0  0  0  0  0  0  0
   -2.2664   14.4992   -2.1478 H   0  0  0  0  0  0  0  0  0  0  0  0
   -5.0657   15.2972    1.0092 H   0  0  0  0  0  0  0  0  0  0  0  0
   -7.0701   16.3264   -2.8438 H   0  0  0  0  0  0  0  0  0  0  0  0
   -8.2457   15.8548   -1.6067 H   0  0  0  0  0  0  0  0  0  0  0  0
   -7.5412   14.6244   -2.6594 H   0  0  0  0  0  0  0  0  0  0  0  0
   -5.1803   12.8735   -1.8802 H   0  0  0  0  0  0  0  0  0  0  0  0
   -3.8932   13.4653   -2.9365 H   0  0  0  0  0  0  0  0  0  0  0  0
   -5.5943   13.7475   -3.3570 H   0  0  0  0  0  0  0  0  0  0  0  0
   -6.4963   14.5727   -0.3922 H   0  0  0  0  0  0  0  0  0  0  0  0
   -6.1058   16.2791   -0.5197 H   0  0  0  0  0  0  0  0  0  0  0  0
   -4.5543   15.8280   -2.4221 H   0  0  0  0  0  0  0  0  0  0  0  0
   -3.3324   15.1090    2.5383 H   0  0  0  0  0  0  0  0  0  0  0  0
    0.0938   14.1184   -1.4779 H   0  0  0  0  0  0  0  0  0  0  0  0
    0.5205   14.1875    0.2174 H   0  0  0  0  0  0  0  0  0  0  0  0
  1  3  1  0  0  0  0
  1  4  2  0  0  0  0
  2  3  2  0  0  0  0
  2 10  1  0  0  0  0
  3  9  1  0  0  0  0
  4  5  1  0  0  0  0
  4 11  1  0  0  0  0
  5 10  1  0  0  0  0
  5 12  2  0  0  0  0
  6  8  1  0  0  0  0
  7  9  1  0  0  0  0
  8  9  1  0  0  0  0
  1 13  1  0  0  0  0
  2 14  1  0  0  0  0
  6 15  1  0  0  0  0
  6 16  1  0  0  0  0
  6 17  1  0  0  0  0
  7 18  1  0  0  0  0
  7 19  1  0  0  0  0
  7 20  1  0  0  0  0
  8 21  1  0  0  0  0
  8 22  1  0  0  0  0
  9 23  1  0  0  0  0
 10 24  1  0  0  0  0
 11 25  1  0  0  0  0
 11 26  1  0  0  0  0
M  END
> <HYBRID receptor title>
5S18(A) > WOY(A-201)

> <HYBRID receptor filename>
experiments/data/docking/5s18.oedu

> <HYBRID Chemgauss4 score>
-7.066018

> <HYBRID receptor title>
5S18(A) > WOY(A-201)

> <HYBRID receptor filename>
experiments/data/docking/5s18.oedu

> <Dock Type>
Hybrid

$$$$
MOL0020
  -OEChem-07032415493D

 26 26  0     1  0  0  0  0  0999 V2000
   -2.4554   14.6274   -1.0854 C   0  0  0  0  0  0  0  0  0  0  0  0
   -4.0772   15.0794    0.6240 C   0  0  0  0  0  0  0  0  0  0  0  0
   -3.8163   14.9162   -0.6802 C   0  0  0  0  0  0  0  0  0  0  0  0
   -1.4470   14.5169   -0.2034 C   0  0  0  0  0  0  0  0  0  0  0  0
   -1.7603   14.7038    1.2576 C   0  0  0  0  0  0  0  0  0  0  0  0
   -7.3266   15.5495   -2.1171 C   0  0  0  0  0  0  0  0  0  0  0  0
   -4.8798   13.7047   -2.5275 C   0  0  0  0  0  0  0  0  0  0  0  0
   -6.2080   15.3565   -1.1047 C   0  0  0  0  0  0  0  0  0  0  0  0
   -4.8582   15.0162   -1.7484 C   0  0  1  0  0  0  0  0  0  0  0  0
   -3.0838   14.9769    1.5623 N   0  0  0  0  0  0  0  0  0  0  0  0
   -0.1486   14.2475   -0.5192 N   0  0  0  0  0  0  0  0  0  0  0  0
   -0.8801   14.6148    2.1116 O   0  0  0  0  0  0  0  0  0  0  0  0
   -2.2664   14.4992   -2.1478 H   0  0  0  0  0  0  0  0  0  0  0  0
   -5.0657   15.2972    1.0092 H   0  0  0  0  0  0  0  0  0  0  0  0
   -7.0701   16.3264   -2.8438 H   0  0  0  0  0  0  0  0  0  0  0  0
   -8.2457   15.8548   -1.6067 H   0  0  0  0  0  0  0  0  0  0  0  0
   -7.5412   14.6244   -2.6594 H   0  0  0  0  0  0  0  0  0  0  0  0
   -5.1803   12.8735   -1.8802 H   0  0  0  0  0  0  0  0  0  0  0  0
   -3.8932   13.4653   -2.9365 H   0  0  0  0  0  0  0  0  0  0  0  0
   -5.5943   13.7475   -3.3570 H   0  0  0  0  0  0  0  0  0  0  0  0
   -6.4963   14.5727   -0.3922 H   0  0  0  0  0  0  0  0  0  0  0  0
   -6.1058   16.2791   -0.5197 H   0  0  0  0  0  0  0  0  0  0  0  0
   -4.5543   15.8280   -2.4221 H   0  0  0  0  0  0  0  0  0  0  0  0
   -3.3324   15.1090    2.5383 H   0  0  0  0  0  0  0  0  0  0  0  0
    0.0938   14.1184   -1.4779 H   0  0  0  0  0  0  0  0  0  0  0  0
    0.5205   14.1875    0.2174 H   0  0  0  0  0  0  0  0  0  0  0  0
  1  3  1  0  0  0  0
  1  4  2  0  0  0  0
  2  3  2  0  0  0  0
  2 10  1  0  0  0  0
  3  9  1  0  0  0  0
  4  5  1  0  0  0  0
  4 11  1  0  0  0  0
  5 10  1  0  0  0  0
  5 12  2  0  0  0  0
  6  8  1  0  0  0  0
  7  9  1  0  0  0  0
  8  9  1  0  0  0  0
  1 13  1  0  0  0  0
  2 14  1  0  0  0  0
  6 15  1  0  0  0  0
  6 16  1  0  0  0  0
  6 17  1  0  0  0  0
  7 18  1  0  0  0  0
  7 19  1  0  0  0  0
  7 20  1  0  0  0  0
  8 21  1  0  0  0  0
  8 22  1  0  0  0  0
  9 23  1  0  0  0  0
 10 24  1  0  0  0  0
 11 25  1  0  0  0  0
 11 26  1  0  0  0  0
M  END
> <HYBRID receptor title>
5S18(A) > WOY(A-201)

> <HYBRID receptor filename>
experiments/data/docking/5s18.oedu

> <HYBRID Chemgauss4 score>
-7.066018

> <HYBRID receptor title>
5S18(A) > WOY(A-201)

> <HYBRID receptor filename>
experiments/data/docking/5s18.oedu

> <Dock Type>
Hybrid

$$$$
MOL0085
  -OEChem-07032415493D

 28 28  0     0  0  0  0  0  0999 V2000
   -2.8459   14.7577   -0.9626 C   0  0  0  0  0  0  0  0  0  0  0  0
   -4.4739   14.5382    0.8309 C   0  0  0  0  0  0  0  0  0  0  0  0
   -1.8722   14.8869   -0.0543 C   0  0  0  0  0  0  0  0  0  0  0  0
   -4.1842   14.5779   -0.4733 C   0  0  0  0  0  0  0  0  0  0  0  0
   -2.1222   14.8511    1.4121 C   0  0  0  0  0  0  0  0  0  0  0  0
   -4.3319   13.1435   -3.3105 C   0  0  0  0  0  0  0  0  0  0  0  0
   -7.3086   15.1832   -0.5105 C   0  0  0  0  0  0  0  0  0  0  0  0
   -4.8533   14.4908   -2.8411 C   0  0  0  0  0  0  0  0  0  0  0  0
   -6.5077   14.0170   -1.0638 C   0  0  0  0  0  0  0  0  0  0  0  0
   -3.4610   14.6723    1.7566 N   0  0  0  0  0  0  0  0  0  0  0  0
   -0.5604   15.0631   -0.4061 N   0  0  0  0  0  0  0  0  0  0  0  0
   -5.1663   14.4474   -1.4223 N   0  0  0  0  0  0  0  0  0  0  0  0
   -1.2190   14.9701    2.2355 O   0  0  0  0  0  0  0  0  0  0  0  0
   -2.6485   14.7857   -2.0286 H   0  0  0  0  0  0  0  0  0  0  0  0
   -5.4704   14.4046    1.2328 H   0  0  0  0  0  0  0  0  0  0  0  0
   -5.0822   12.3666   -3.1330 H   0  0  0  0  0  0  0  0  0  0  0  0
   -3.4205   12.8607   -2.7730 H   0  0  0  0  0  0  0  0  0  0  0  0
   -4.1073   13.1574   -4.3825 H   0  0  0  0  0  0  0  0  0  0  0  0
   -7.3761   15.9814   -1.2564 H   0  0  0  0  0  0  0  0  0  0  0  0
   -6.8373   15.5992    0.3863 H   0  0  0  0  0  0  0  0  0  0  0  0
   -8.3276   14.8762   -0.2513 H   0  0  0  0  0  0  0  0  0  0  0  0
   -4.0977   15.2622   -3.0218 H   0  0  0  0  0  0  0  0  0  0  0  0
   -5.7503   14.7605   -3.4080 H   0  0  0  0  0  0  0  0  0  0  0  0
   -6.4447   13.2232   -0.3125 H   0  0  0  0  0  0  0  0  0  0  0  0
   -7.0104   13.6055   -1.9451 H   0  0  0  0  0  0  0  0  0  0  0  0
   -3.7034   14.6391    2.7425 H   0  0  0  0  0  0  0  0  0  0  0  0
   -0.3311   15.0952   -1.3730 H   0  0  0  0  0  0  0  0  0  0  0  0
    0.1146   15.1526    0.3178 H   0  0  0  0  0  0  0  0  0  0  0  0
  1  3  2  0  0  0  0
  1  4  1  0  0  0  0
  2  4  2  0  0  0  0
  2 10  1  0  0  0  0
  3  5  1  0  0  0  0
  3 11  1  0  0  0  0
  4 12  1  0  0  0  0
  5 10  1  0  0  0  0
  5 13  2  0  0  0  0
  6  8  1  0  0  0  0
  7  9  1  0  0  0  0
  8 12  1  0  0  0  0
  9 12  1  0  0  0  0
  1 14  1  0  0  0  0
  2 15  1  0  0  0  0
  6 16  1  0  0  0  0
  6 17  1  0  0  0  0
  6 18  1  0  0  0  0
  7 19  1  0  0  0  0
  7 20  1  0  0  0  0
  7 21  1  0  0  0  0
  8 22  1  0  0  0  0
  8 23  1  0  0  0  0
  9 24  1  0  0  0  0
  9 25  1  0  0  0  0
 10 26  1  0  0  0  0
 11 27  1  0  0  0  0
 11 28  1  0  0  0  0
M  END
> <HYBRID receptor title>
5S18(A) > WOY(A-201)

> <HYBRID receptor filename>
experiments/data/docking/5s18.oedu

> <HYBRID Chemgauss4 score>
-7.062976

> <HYBRID receptor title>
5S18(A) > WOY(A-201)

> <HYBRID receptor filename>
experiments/data/docking/5s18.oedu

> <Dock Type>
Hybrid

$$$$
MOL0161
  -OEChem-07032415493D

 21 21  0     0  0  0  0  0  0999 V2000
   -3.5031   14.9258   -1.1557 C   0  0  0  0  0  0  0  0  0  0  0  0
   -4.9719   14.8271    0.7469 C   0  0  0  0  0  0  0  0  0  0  0  0
   -4.8247   14.8816   -0.5808 C   0  0  0  0  0  0  0  0  0  0  0  0
   -2.3952   14.9145   -0.3934 C   0  0  0  0  0  0  0  0  0  0  0  0
   -2.5654   14.8535    1.1038 C   0  0  0  0  0  0  0  0  0  0  0  0
   -6.0170   14.8942   -1.4043 C   0  0  0  0  0  0  0  0  0  0  0  0
   -5.9252   14.5450   -2.6982 C   0  0  0  0  0  0  0  0  0  0  0  0
   -7.0859   14.5218   -3.6377 C   0  0  0  0  0  0  0  0  0  0  0  0
   -3.8721   14.8137    1.5661 N   0  0  0  0  0  0  0  0  0  0  0  0
   -1.1153   14.9542   -0.8608 N   0  0  0  0  0  0  0  0  0  0  0  0
   -1.5894   14.8409    1.8522 O   0  0  0  0  0  0  0  0  0  0  0  0
   -3.4184   14.9697   -2.2381 H   0  0  0  0  0  0  0  0  0  0  0  0
   -5.9283   14.7912    1.2554 H   0  0  0  0  0  0  0  0  0  0  0  0
   -6.9639   15.1872   -0.9533 H   0  0  0  0  0  0  0  0  0  0  0  0
   -4.9634   14.2574   -3.1155 H   0  0  0  0  0  0  0  0  0  0  0  0
   -7.5591   13.5352   -3.6200 H   0  0  0  0  0  0  0  0  0  0  0  0
   -6.7434   14.7209   -4.6580 H   0  0  0  0  0  0  0  0  0  0  0  0
   -7.8429   15.2688   -3.3799 H   0  0  0  0  0  0  0  0  0  0  0  0
   -4.0347   14.7720    2.5679 H   0  0  0  0  0  0  0  0  0  0  0  0
   -0.9667   14.9953   -1.8461 H   0  0  0  0  0  0  0  0  0  0  0  0
   -0.3654   14.9410   -0.2041 H   0  0  0  0  0  0  0  0  0  0  0  0
  1  3  1  0  0  0  0
  1  4  2  0  0  0  0
  2  3  2  0  0  0  0
  2  9  1  0  0  0  0
  3  6  1  0  0  0  0
  4  5  1  0  0  0  0
  4 10  1  0  0  0  0
  5  9  1  0  0  0  0
  5 11  2  0  0  0  0
  6  7  2  0  0  0  0
  7  8  1  0  0  0  0
  1 12  1  0  0  0  0
  2 13  1  0  0  0  0
  6 14  1  0  0  0  0
  7 15  1  0  0  0  0
  8 16  1  0  0  0  0
  8 17  1  0  0  0  0
  8 18  1  0  0  0  0
  9 19  1  0  0  0  0
 10 20  1  0  0  0  0
 10 21  1  0  0  0  0
M  END
> <HYBRID receptor title>
5S18(A) > WOY(A-201)

> <HYBRID receptor filename>
experiments/data/docking/5s18.oedu

> <HYBRID Chemgauss4 score>
-7.053211

> <HYBRID receptor title>
5S18(A) > WOY(A-201)

> <HYBRID receptor filename>
experiments/data/docking/5s18.oedu

> <Dock Type>
Hybrid

$$$$
MOL0054
  -OEChem-07032415493D

 17 17  0     0  0  0  0  0  0999 V2000
   -2.9641   14.6016   -1.1446 C   0  0  0  0  0  0  0  0  0  0  0  0
   -4.3257   14.6440   -0.6487 C   0  0  0  0  0  0  0  0  0  0  0  0
   -1.8957   14.7525   -0.3428 C   0  0  0  0  0  0  0  0  0  0  0  0
   -4.5268   14.8424    0.6624 C   0  0  0  0  0  0  0  0  0  0  0  0
   -2.1405   14.9739    1.1255 C   0  0  0  0  0  0  0  0  0  0  0  0
   -5.4281   14.4615   -1.6443 C   0  0  0  0  0  0  0  0  0  0  0  0
   -3.4677   15.0020    1.5189 N   0  0  0  0  0  0  0  0  0  0  0  0
   -0.5943   14.7225   -0.7473 N   0  0  0  0  0  0  0  0  0  0  0  0
   -1.2047   15.1186    1.9102 O   0  0  0  0  0  0  0  0  0  0  0  0
   -5.7824   14.8879    1.1578 F   0  0  0  0  0  0  0  0  0  0  0  0
   -4.9333   14.2812   -2.8866 F   0  0  0  0  0  0  0  0  0  0  0  0
   -6.1859   13.3869   -1.3422 F   0  0  0  0  0  0  0  0  0  0  0  0
   -6.2370   15.5411   -1.6745 F   0  0  0  0  0  0  0  0  0  0  0  0
   -2.8252   14.4397   -2.2102 H   0  0  0  0  0  0  0  0  0  0  0  0
   -3.6695   15.1501    2.5032 H   0  0  0  0  0  0  0  0  0  0  0  0
   -0.3969   14.5779   -1.7140 H   0  0  0  0  0  0  0  0  0  0  0  0
    0.1219   14.8462   -0.0649 H   0  0  0  0  0  0  0  0  0  0  0  0
  1  2  1  0  0  0  0
  1  3  2  0  0  0  0
  2  4  2  0  0  0  0
  2  6  1  0  0  0  0
  3  5  1  0  0  0  0
  3  8  1  0  0  0  0
  4  7  1  0  0  0  0
  4 10  1  0  0  0  0
  5  7  1  0  0  0  0
  5  9  2  0  0  0  0
  6 11  1  0  0  0  0
  6 12  1  0  0  0  0
  6 13  1  0  0  0  0
  1 14  1  0  0  0  0
  7 15  1  0  0  0  0
  8 16  1  0  0  0  0
  8 17  1  0  0  0  0
M  END
> <HYBRID receptor title>
5S18(A) > WOY(A-201)

> <HYBRID receptor filename>
experiments/data/docking/5s18.oedu

> <HYBRID Chemgauss4 score>
-7.047620

> <HYBRID receptor title>
5S18(A) > WOY(A-201)

> <HYBRID receptor filename>
experiments/data/docking/5s18.oedu

> <Dock Type>
Hybrid

$$$$
MOL0126
  -OEChem-07032415493D

 21 21  0     0  0  0  0  0  0999 V2000
   -3.5470   14.7365   -0.9999 C   0  0  0  0  0  0  0  0  0  0  0  0
   -4.9685   14.5482    0.9316 C   0  0  0  0  0  0  0  0  0  0  0  0
   -4.8485   14.5796   -0.3996 C   0  0  0  0  0  0  0  0  0  0  0  0
   -2.4313   14.8549   -0.2584 C   0  0  0  0  0  0  0  0  0  0  0  0
   -2.5708   14.8197    1.2428 C   0  0  0  0  0  0  0  0  0  0  0  0
   -7.2308   14.8874   -0.7495 C   0  0  0  0  0  0  0  0  0  0  0  0
   -6.0492   14.4524   -1.2007 C   0  0  0  0  0  0  0  0  0  0  0  0
   -5.8802   13.8128   -2.5429 C   0  0  0  0  0  0  0  0  0  0  0  0
   -3.8597   14.6653    1.7302 N   0  0  0  0  0  0  0  0  0  0  0  0
   -1.1691   15.0064   -0.7504 N   0  0  0  0  0  0  0  0  0  0  0  0
   -1.5865   14.9235    1.9729 O   0  0  0  0  0  0  0  0  0  0  0  0
   -3.4843   14.7581   -2.0846 H   0  0  0  0  0  0  0  0  0  0  0  0
   -5.9085   14.4333    1.4586 H   0  0  0  0  0  0  0  0  0  0  0  0
   -8.1394   14.7997   -1.3368 H   0  0  0  0  0  0  0  0  0  0  0  0
   -7.3176   15.3464    0.2292 H   0  0  0  0  0  0  0  0  0  0  0  0
   -6.0163   12.7274   -2.4757 H   0  0  0  0  0  0  0  0  0  0  0  0
   -6.6095   14.2106   -3.2567 H   0  0  0  0  0  0  0  0  0  0  0  0
   -4.8819   13.9947   -2.9551 H   0  0  0  0  0  0  0  0  0  0  0  0
   -4.0014   14.6361    2.7357 H   0  0  0  0  0  0  0  0  0  0  0  0
   -1.0410   15.0342   -1.7391 H   0  0  0  0  0  0  0  0  0  0  0  0
   -0.4112   15.0850   -0.1077 H   0  0  0  0  0  0  0  0  0  0  0  0
  1  3  1  0  0  0  0
  1  4  2  0  0  0  0
  2  3  2  0  0  0  0
  2  9  1  0  0  0  0
  3  7  1  0  0  0  0
  4  5  1  0  0  0  0
  4 10  1  0  0  0  0
  5  9  1  0  0  0  0
  5 11  2  0  0  0  0
  6  7  2  0  0  0  0
  7  8  1  0  0  0  0
  1 12  1  0  0  0  0
  2 13  1  0  0  0  0
  6 14  1  0  0  0  0
  6 15  1  0  0  0  0
  8 16  1  0  0  0  0
  8 17  1  0  0  0  0
  8 18  1  0  0  0  0
  9 19  1  0  0  0  0
 10 20  1  0  0  0  0
 10 21  1  0  0  0  0
M  END
> <HYBRID receptor title>
5S18(A) > WOY(A-201)

> <HYBRID receptor filename>
experiments/data/docking/5s18.oedu

> <HYBRID Chemgauss4 score>
-7.044470

> <HYBRID receptor title>
5S18(A) > WOY(A-201)

> <HYBRID receptor filename>
experiments/data/docking/5s18.oedu

> <Dock Type>
Hybrid

$$$$
MOL0308
  -OEChem-07032415493D

 24 25  0     0  0  0  0  0  0999 V2000
   -2.5192   14.6231   -0.8617 C   0  0  0  0  0  0  0  0  0  0  0  0
   -4.1698   14.8535    0.8643 C   0  0  0  0  0  0  0  0  0  0  0  0
   -3.9007   14.7546   -0.4447 C   0  0  0  0  0  0  0  0  0  0  0  0
   -1.4996   14.5963    0.0139 C   0  0  0  0  0  0  0  0  0  0  0  0
   -1.8224   14.7088    1.4804 C   0  0  0  0  0  0  0  0  0  0  0  0
    1.6071   13.7039   -1.9918 C   0  0  0  0  0  0  0  0  0  0  0  0
    0.3236   13.0298   -2.3740 C   0  0  0  0  0  0  0  0  0  0  0  0
    0.2915   14.3573   -1.6683 C   0  0  0  0  0  0  0  0  0  0  0  0
   -4.9536   14.7726   -1.5066 C   0  0  0  0  0  0  0  0  0  0  0  0
   -3.1656   14.8315    1.7965 N   0  0  0  0  0  0  0  0  0  0  0  0
   -0.1819   14.4749   -0.3130 N   0  0  0  0  0  0  0  0  0  0  0  0
   -0.9327   14.6905    2.3290 O   0  0  0  0  0  0  0  0  0  0  0  0
   -4.4058   14.6571   -2.7348 F   0  0  0  0  0  0  0  0  0  0  0  0
   -5.8261   13.7554   -1.3478 F   0  0  0  0  0  0  0  0  0  0  0  0
   -5.6552   15.9253   -1.4750 F   0  0  0  0  0  0  0  0  0  0  0  0
   -2.3239   14.5448   -1.9279 H   0  0  0  0  0  0  0  0  0  0  0  0
   -5.1734   14.9546    1.2583 H   0  0  0  0  0  0  0  0  0  0  0  0
    2.1813   13.2722   -1.1813 H   0  0  0  0  0  0  0  0  0  0  0  0
    2.2046   14.1369   -2.7846 H   0  0  0  0  0  0  0  0  0  0  0  0
    0.0539   13.0112   -3.4228 H   0  0  0  0  0  0  0  0  0  0  0  0
    0.0376   12.1440   -1.8202 H   0  0  0  0  0  0  0  0  0  0  0  0
    0.0153   15.2205   -2.2641 H   0  0  0  0  0  0  0  0  0  0  0  0
   -3.4211   14.9097    2.7765 H   0  0  0  0  0  0  0  0  0  0  0  0
    0.4907   14.4702    0.4357 H   0  0  0  0  0  0  0  0  0  0  0  0
  1  3  1  0  0  0  0
  1  4  2  0  0  0  0
  2  3  2  0  0  0  0
  2 10  1  0  0  0  0
  3  9  1  0  0  0  0
  4  5  1  0  0  0  0
  4 11  1  0  0  0  0
  5 10  1  0  0  0  0
  5 12  2  0  0  0  0
  6  7  1  0  0  0  0
  6  8  1  0  0  0  0
  7  8  1  0  0  0  0
  8 11  1  0  0  0  0
  9 13  1  0  0  0  0
  9 14  1  0  0  0  0
  9 15  1  0  0  0  0
  1 16  1  0  0  0  0
  2 17  1  0  0  0  0
  6 18  1  0  0  0  0
  6 19  1  0  0  0  0
  7 20  1  0  0  0  0
  7 21  1  0  0  0  0
  8 22  1  0  0  0  0
 10 23  1  0  0  0  0
 11 24  1  0  0  0  0
M  END
> <HYBRID receptor title>
5S18(A) > WOY(A-201)

> <HYBRID receptor filename>
experiments/data/docking/5s18.oedu

> <HYBRID Chemgauss4 score>
-7.042617

> <HYBRID receptor title>
5S18(A) > WOY(A-201)

> <HYBRID receptor filename>
experiments/data/docking/5s18.oedu

> <Dock Type>
Hybrid

$$$$
MOL0397
  -OEChem-07032415493D

 24 25  0     0  0  0  0  0  0999 V2000
   -2.7626   14.5321   -0.1983 C   0  0  0  0  0  0  0  0  0  0  0  0
   -0.2175   14.8240    0.7417 C   0  0  0  0  0  0  0  0  0  0  0  0
   -0.3981   14.6532   -0.6219 C   0  0  0  0  0  0  0  0  0  0  0  0
   -1.6981   14.5052   -1.0923 C   0  0  0  0  0  0  0  0  0  0  0  0
   -2.4766   14.7082    1.1459 C   0  0  0  0  0  0  0  0  0  0  0  0
    1.3378   15.6631   -2.1288 C   0  0  0  0  0  0  0  0  0  0  0  0
    0.7564   14.6346   -1.5057 C   0  0  0  0  0  0  0  0  0  0  0  0
    2.4963   13.7970   -2.6989 C   0  0  0  0  0  0  0  0  0  0  0  0
   -1.9851   14.3149   -2.5465 C   0  0  0  0  0  0  0  0  0  0  0  0
   -1.2271   14.8554    1.6403 N   0  0  0  0  0  0  0  0  0  0  0  0
    2.3990   15.2002   -2.8646 N   0  0  0  0  0  0  0  0  0  0  0  0
    1.4259   13.4795   -1.8235 N   0  0  0  0  0  0  0  0  0  0  0  0
   -3.5720   14.7331    2.0447 N   0  0  0  0  0  0  0  0  0  0  0  0
    3.3120   13.0360   -3.1946 O   0  0  0  0  0  0  0  0  0  0  0  0
   -3.3138   14.1856   -2.8292 F   0  0  0  0  0  0  0  0  0  0  0  0
   -1.3901   13.1977   -3.0541 F   0  0  0  0  0  0  0  0  0  0  0  0
   -1.5513   15.3496   -3.3236 F   0  0  0  0  0  0  0  0  0  0  0  0
   -3.7849   14.4183   -0.5470 H   0  0  0  0  0  0  0  0  0  0  0  0
    0.7716   14.9458    1.1738 H   0  0  0  0  0  0  0  0  0  0  0  0
    1.0886   16.7117   -2.1167 H   0  0  0  0  0  0  0  0  0  0  0  0
    3.0131   15.7694   -3.4339 H   0  0  0  0  0  0  0  0  0  0  0  0
    1.1875   12.5559   -1.4825 H   0  0  0  0  0  0  0  0  0  0  0  0
   -4.4965   14.6777    1.6769 H   0  0  0  0  0  0  0  0  0  0  0  0
   -3.3981   14.9112    3.0096 H   0  0  0  0  0  0  0  0  0  0  0  0
  1  4  2  0  0  0  0
  1  5  1  0  0  0  0
  2  3  2  0  0  0  0
  2 10  1  0  0  0  0
  3  4  1  0  0  0  0
  3  7  1  0  0  0  0
  4  9  1  0  0  0  0
  5 10  2  0  0  0  0
  5 13  1  0  0  0  0
  6  7  2  0  0  0  0
  6 11  1  0  0  0  0
  7 12  1  0  0  0  0
  8 11  1  0  0  0  0
  8 12  1  0  0  0  0
  8 14  2  0  0  0  0
  9 15  1  0  0  0  0
  9 16  1  0  0  0  0
  9 17  1  0  0  0  0
  1 18  1  0  0  0  0
  2 19  1  0  0  0  0
  6 20  1  0  0  0  0
 11 21  1  0  0  0  0
 12 22  1  0  0  0  0
 13 23  1  0  0  0  0
 13 24  1  0  0  0  0
M  END
> <HYBRID receptor title>
5S18(A) > WOY(A-201)

> <HYBRID receptor filename>
experiments/data/docking/5s18.oedu

> <HYBRID Chemgauss4 score>
-7.023404

> <HYBRID receptor title>
5S18(A) > WOY(A-201)

> <HYBRID receptor filename>
experiments/data/docking/5s18.oedu

> <Dock Type>
Hybrid

$$$$
MOL0385
  -OEChem-07032415493D

 20 20  0     1  0  0  0  0  0999 V2000
   -3.2098   14.7446   -1.0168 C   0  0  0  0  0  0  0  0  0  0  0  0
   -4.6712   14.7455    0.8861 C   0  0  0  0  0  0  0  0  0  0  0  0
   -4.5413   14.6999   -0.4469 C   0  0  0  0  0  0  0  0  0  0  0  0
   -2.1023   14.8297   -0.2596 C   0  0  0  0  0  0  0  0  0  0  0  0
   -2.2691   14.8800    1.2361 C   0  0  0  0  0  0  0  0  0  0  0  0
   -5.6825   13.3299   -2.2053 C   0  0  0  0  0  0  0  0  0  0  0  0
   -5.7015   14.6048   -1.3857 C   0  0  1  0  0  0  0  0  0  0  0  0
   -3.5732   14.8326    1.7012 N   0  0  0  0  0  0  0  0  0  0  0  0
   -0.8248   14.8754   -0.7328 N   0  0  0  0  0  0  0  0  0  0  0  0
   -1.2938   14.9580    1.9809 O   0  0  0  0  0  0  0  0  0  0  0  0
   -6.8668   14.6277   -0.6864 F   0  0  0  0  0  0  0  0  0  0  0  0
   -3.1278   14.7067   -2.0997 H   0  0  0  0  0  0  0  0  0  0  0  0
   -5.6290   14.7171    1.3908 H   0  0  0  0  0  0  0  0  0  0  0  0
   -5.7017   12.4267   -1.5806 H   0  0  0  0  0  0  0  0  0  0  0  0
   -6.5549   13.2696   -2.8691 H   0  0  0  0  0  0  0  0  0  0  0  0
   -4.7958   13.2562   -2.8481 H   0  0  0  0  0  0  0  0  0  0  0  0
   -5.6817   15.4823   -2.0366 H   0  0  0  0  0  0  0  0  0  0  0  0
   -3.7242   14.8643    2.7052 H   0  0  0  0  0  0  0  0  0  0  0  0
   -0.6782   14.8444   -1.7188 H   0  0  0  0  0  0  0  0  0  0  0  0
   -0.0744   14.9385   -0.0795 H   0  0  0  0  0  0  0  0  0  0  0  0
  1  3  1  0  0  0  0
  1  4  2  0  0  0  0
  2  3  2  0  0  0  0
  2  8  1  0  0  0  0
  3  7  1  0  0  0  0
  4  5  1  0  0  0  0
  4  9  1  0  0  0  0
  5  8  1  0  0  0  0
  5 10  2  0  0  0  0
  6  7  1  0  0  0  0
  7 11  1  0  0  0  0
  1 12  1  0  0  0  0
  2 13  1  0  0  0  0
  6 14  1  0  0  0  0
  6 15  1  0  0  0  0
  6 16  1  0  0  0  0
  7 17  1  0  0  0  0
  8 18  1  0  0  0  0
  9 19  1  0  0  0  0
  9 20  1  0  0  0  0
M  END
> <HYBRID receptor title>
5S18(A) > WOY(A-201)

> <HYBRID receptor filename>
experiments/data/docking/5s18.oedu

> <HYBRID Chemgauss4 score>
-7.009323

> <HYBRID receptor title>
5S18(A) > WOY(A-201)

> <HYBRID receptor filename>
experiments/data/docking/5s18.oedu

> <Dock Type>
Hybrid

$$$$
MOL0016
  -OEChem-07032415493D

 24 25  0     0  0  0  0  0  0999 V2000
   -2.8557   14.4876   -1.0083 C   0  0  0  0  0  0  0  0  0  0  0  0
   -4.4720   14.8825    0.7204 C   0  0  0  0  0  0  0  0  0  0  0  0
   -4.2285   14.6634   -0.5790 C   0  0  0  0  0  0  0  0  0  0  0  0
   -1.8196   14.5355   -0.1533 C   0  0  0  0  0  0  0  0  0  0  0  0
   -2.1137   14.7829    1.3026 C   0  0  0  0  0  0  0  0  0  0  0  0
   -6.7915   13.3704   -2.6231 C   0  0  0  0  0  0  0  0  0  0  0  0
   -5.2635   13.5348   -2.7270 C   0  0  0  0  0  0  0  0  0  0  0  0
   -6.6769   13.8870   -1.1769 C   0  0  0  0  0  0  0  0  0  0  0  0
   -5.3654   14.5976   -1.6018 C   0  0  0  0  0  0  0  0  0  0  0  0
   -3.4501   14.9405    1.6315 N   0  0  0  0  0  0  0  0  0  0  0  0
   -0.5089   14.3782   -0.4927 N   0  0  0  0  0  0  0  0  0  0  0  0
   -1.2076   14.8376    2.1324 O   0  0  0  0  0  0  0  0  0  0  0  0
   -2.6839   14.3112   -2.0665 H   0  0  0  0  0  0  0  0  0  0  0  0
   -5.4665   15.0246    1.1254 H   0  0  0  0  0  0  0  0  0  0  0  0
   -7.3525   14.0384   -3.2866 H   0  0  0  0  0  0  0  0  0  0  0  0
   -7.1703   12.3518   -2.7371 H   0  0  0  0  0  0  0  0  0  0  0  0
   -4.7093   12.6265   -2.4595 H   0  0  0  0  0  0  0  0  0  0  0  0
   -4.8963   13.9000   -3.6903 H   0  0  0  0  0  0  0  0  0  0  0  0
   -7.4863   14.5454   -0.8491 H   0  0  0  0  0  0  0  0  0  0  0  0
   -6.5530   13.0858   -0.4377 H   0  0  0  0  0  0  0  0  0  0  0  0
   -5.5526   15.6195   -2.0042 H   0  0  0  0  0  0  0  0  0  0  0  0
   -3.6864   15.1090    2.6050 H   0  0  0  0  0  0  0  0  0  0  0  0
   -0.2786   14.2131   -1.4490 H   0  0  0  0  0  0  0  0  0  0  0  0
    0.1812   14.4329    0.2247 H   0  0  0  0  0  0  0  0  0  0  0  0
  1  3  1  0  0  0  0
  1  4  2  0  0  0  0
  2  3  2  0  0  0  0
  2 10  1  0  0  0  0
  3  9  1  0  0  0  0
  4  5  1  0  0  0  0
  4 11  1  0  0  0  0
  5 10  1  0  0  0  0
  5 12  2  0  0  0  0
  6  7  1  0  0  0  0
  6  8  1  0  0  0  0
  7  9  1  0  0  0  0
  8  9  1  0  0  0  0
  1 13  1  0  0  0  0
  2 14  1  0  0  0  0
  6 15  1  0  0  0  0
  6 16  1  0  0  0  0
  7 17  1  0  0  0  0
  7 18  1  0  0  0  0
  8 19  1  0  0  0  0
  8 20  1  0  0  0  0
  9 21  1  0  0  0  0
 10 22  1  0  0  0  0
 11 23  1  0  0  0  0
 11 24  1  0  0  0  0
M  END
> <HYBRID receptor title>
5S18(A) > WOY(A-201)

> <HYBRID receptor filename>
experiments/data/docking/5s18.oedu

> <HYBRID Chemgauss4 score>
-7.005374

> <HYBRID receptor title>
5S18(A) > WOY(A-201)

> <HYBRID receptor filename>
experiments/data/docking/5s18.oedu

> <Dock Type>
Hybrid

$$$$
MOL0352
  -OEChem-07032415493D

 21 21  0     0  0  0  0  0  0999 V2000
   -3.3469   14.7226   -1.0070 C   0  0  0  0  0  0  0  0  0  0  0  0
   -4.6694   14.7045    1.0037 C   0  0  0  0  0  0  0  0  0  0  0  0
   -4.6353   14.5843   -0.3340 C   0  0  0  0  0  0  0  0  0  0  0  0
   -2.1904   14.9657   -0.3570 C   0  0  0  0  0  0  0  0  0  0  0  0
   -2.2947   15.0923    1.1515 C   0  0  0  0  0  0  0  0  0  0  0  0
   -0.0132   15.4433    1.0452 C   0  0  0  0  0  0  0  0  0  0  0  0
   -5.8422   14.3172   -1.1743 C   0  0  0  0  0  0  0  0  0  0  0  0
   -1.2171   15.3287    1.8464 N   0  0  0  0  0  0  0  0  0  0  0  0
   -3.5403   14.9513    1.7419 N   0  0  0  0  0  0  0  0  0  0  0  0
   -0.9606   15.1045   -0.9239 N   0  0  0  0  0  0  0  0  0  0  0  0
   -5.5171   14.2457   -2.4827 F   0  0  0  0  0  0  0  0  0  0  0  0
   -6.4292   13.1508   -0.8324 F   0  0  0  0  0  0  0  0  0  0  0  0
   -6.7605   15.2966   -1.0315 F   0  0  0  0  0  0  0  0  0  0  0  0
   -3.3454   14.6202   -2.0893 H   0  0  0  0  0  0  0  0  0  0  0  0
   -5.5741   14.6183    1.5923 H   0  0  0  0  0  0  0  0  0  0  0  0
    0.1388   16.4827    0.7419 H   0  0  0  0  0  0  0  0  0  0  0  0
    0.8525   15.1137    1.6248 H   0  0  0  0  0  0  0  0  0  0  0  0
   -0.0970   14.8210    0.1506 H   0  0  0  0  0  0  0  0  0  0  0  0
   -3.6536   15.0282    2.7468 H   0  0  0  0  0  0  0  0  0  0  0  0
   -0.8766   15.0233   -1.9152 H   0  0  0  0  0  0  0  0  0  0  0  0
   -0.1767   15.2836   -0.3331 H   0  0  0  0  0  0  0  0  0  0  0  0
  1  3  1  0  0  0  0
  1  4  2  0  0  0  0
  2  3  2  0  0  0  0
  2  9  1  0  0  0  0
  3  7  1  0  0  0  0
  4  5  1  0  0  0  0
  4 10  1  0  0  0  0
  5  8  2  0  0  0  0
  5  9  1  0  0  0  0
  6  8  1  0  0  0  0
  7 11  1  0  0  0  0
  7 12  1  0  0  0  0
  7 13  1  0  0  0  0
  1 14  1  0  0  0  0
  2 15  1  0  0  0  0
  6 16  1  0  0  0  0
  6 17  1  0  0  0  0
  6 18  1  0  0  0  0
  9 19  1  0  0  0  0
 10 20  1  0  0  0  0
 10 21  1  0  0  0  0
M  END
> <HYBRID receptor title>
5S18(A) > WOY(A-201)

> <HYBRID receptor filename>
experiments/data/docking/5s18.oedu

> <HYBRID Chemgauss4 score>
-7.001288

> <HYBRID receptor title>
5S18(A) > WOY(A-201)

> <HYBRID receptor filename>
experiments/data/docking/5s18.oedu

> <Dock Type>
Hybrid

$$$$
MOL0100
  -OEChem-07032415493D

 20 20  0     0  0  0  0  0  0999 V2000
   -1.7300   14.5721   -0.9401 C   0  0  0  0  0  0  0  0  0  0  0  0
   -3.1682   14.7723   -0.8609 C   0  0  0  0  0  0  0  0  0  0  0  0
   -0.9335   14.5231    0.1391 C   0  0  0  0  0  0  0  0  0  0  0  0
   -3.7385   14.9093    0.3536 C   0  0  0  0  0  0  0  0  0  0  0  0
   -1.5743   14.6835    1.4852 C   0  0  0  0  0  0  0  0  0  0  0  0
   -3.8726   14.8177   -2.1863 C   0  0  0  0  0  0  0  0  0  0  0  0
   -5.2007   15.1031    0.6313 C   0  0  0  0  0  0  0  0  0  0  0  0
   -2.9456   14.8643    1.4845 N   0  0  0  0  0  0  0  0  0  0  0  0
    0.4165   14.3386    0.1196 N   0  0  0  0  0  0  0  0  0  0  0  0
   -0.9031   14.6522    2.5153 O   0  0  0  0  0  0  0  0  0  0  0  0
   -2.9877   14.6368   -3.1916 F   0  0  0  0  0  0  0  0  0  0  0  0
   -4.7792   13.8199   -2.2665 F   0  0  0  0  0  0  0  0  0  0  0  0
   -5.9079   15.1256   -0.5159 F   0  0  0  0  0  0  0  0  0  0  0  0
   -5.6839   14.1060    1.3984 F   0  0  0  0  0  0  0  0  0  0  0  0
   -5.4167   16.2665    1.2767 F   0  0  0  0  0  0  0  0  0  0  0  0
   -1.2975   14.4580   -1.9312 H   0  0  0  0  0  0  0  0  0  0  0  0
   -4.3730   15.7723   -2.3119 H   0  0  0  0  0  0  0  0  0  0  0  0
   -3.4079   14.9725    2.3832 H   0  0  0  0  0  0  0  0  0  0  0  0
    0.8722   14.2284   -0.7609 H   0  0  0  0  0  0  0  0  0  0  0  0
    0.9099   14.3191    0.9858 H   0  0  0  0  0  0  0  0  0  0  0  0
  1  2  1  0  0  0  0
  1  3  2  0  0  0  0
  2  4  2  0  0  0  0
  2  6  1  0  0  0  0
  3  5  1  0  0  0  0
  3  9  1  0  0  0  0
  4  7  1  0  0  0  0
  4  8  1  0  0  0  0
  5  8  1  0  0  0  0
  5 10  2  0  0  0  0
  6 11  1  0  0  0  0
  6 12  1  0  0  0  0
  7 13  1  0  0  0  0
  7 14  1  0  0  0  0
  7 15  1  0  0  0  0
  1 16  1  0  0  0  0
  6 17  1  0  0  0  0
  8 18  1  0  0  0  0
  9 19  1  0  0  0  0
  9 20  1  0  0  0  0
M  END
> <HYBRID receptor title>
5S18(A) > WOY(A-201)

> <HYBRID receptor filename>
experiments/data/docking/5s18.oedu

> <HYBRID Chemgauss4 score>
-6.983283

> <HYBRID receptor title>
5S18(A) > WOY(A-201)

> <HYBRID receptor filename>
experiments/data/docking/5s18.oedu

> <Dock Type>
Hybrid

$$$$
MOL0055
  -OEChem-07032415493D

 17 17  0     0  0  0  0  0  0999 V2000
   -2.5170   14.7742   -1.0316 C   0  0  0  0  0  0  0  0  0  0  0  0
   -3.9496   14.6060   -0.8293 C   0  0  0  0  0  0  0  0  0  0  0  0
   -1.6412   14.9155   -0.0235 C   0  0  0  0  0  0  0  0  0  0  0  0
   -4.4181   14.5918    0.4341 C   0  0  0  0  0  0  0  0  0  0  0  0
   -2.1790   14.8975    1.3758 C   0  0  0  0  0  0  0  0  0  0  0  0
   -4.7410   14.4662   -2.0999 C   0  0  0  0  0  0  0  0  0  0  0  0
   -3.5465   14.7344    1.4920 N   0  0  0  0  0  0  0  0  0  0  0  0
   -0.2948   15.0759   -0.1617 N   0  0  0  0  0  0  0  0  0  0  0  0
   -1.4331   15.0218    2.3455 O   0  0  0  0  0  0  0  0  0  0  0  0
   -3.9321   14.5286   -3.1751 F   0  0  0  0  0  0  0  0  0  0  0  0
   -5.3921   13.2879   -2.1344 F   0  0  0  0  0  0  0  0  0  0  0  0
   -5.6536   15.4513   -2.2049 F   0  0  0  0  0  0  0  0  0  0  0  0
   -6.3880   14.3699    0.9854 I   0  0  0  0  0  0  0  0  0  0  0  0
   -2.1578   14.7831   -2.0580 H   0  0  0  0  0  0  0  0  0  0  0  0
   -3.9536   14.7170    2.4226 H   0  0  0  0  0  0  0  0  0  0  0  0
    0.0936   15.0927   -1.0802 H   0  0  0  0  0  0  0  0  0  0  0  0
    0.2627   15.1720    0.6593 H   0  0  0  0  0  0  0  0  0  0  0  0
  1  2  1  0  0  0  0
  1  3  2  0  0  0  0
  2  4  2  0  0  0  0
  2  6  1  0  0  0  0
  3  5  1  0  0  0  0
  3  8  1  0  0  0  0
  4  7  1  0  0  0  0
  4 13  1  0  0  0  0
  5  7  1  0  0  0  0
  5  9  2  0  0  0  0
  6 10  1  0  0  0  0
  6 11  1  0  0  0  0
  6 12  1  0  0  0  0
  1 14  1  0  0  0  0
  7 15  1  0  0  0  0
  8 16  1  0  0  0  0
  8 17  1  0  0  0  0
M  END
> <HYBRID receptor title>
5S18(A) > WOY(A-201)

> <HYBRID receptor filename>
experiments/data/docking/5s18.oedu

> <HYBRID Chemgauss4 score>
-6.982978

> <HYBRID receptor title>
5S18(A) > WOY(A-201)

> <HYBRID receptor filename>
experiments/data/docking/5s18.oedu

> <Dock Type>
Hybrid

$$$$
MOL0335
  -OEChem-07032415493D

 28 29  0     1  0  0  0  0  0999 V2000
   -0.6126   15.1310   -2.3694 C   0  0  0  0  0  0  0  0  0  0  0  0
    0.2660   14.8256   -0.1222 C   0  0  0  0  0  0  0  0  0  0  0  0
   -0.7729   14.9250   -0.9571 C   0  0  0  0  0  0  0  0  0  0  0  0
    0.6369   15.2223   -2.8386 C   0  0  0  0  0  0  0  0  0  0  0  0
    1.8390   15.1196   -1.9676 C   0  0  0  0  0  0  0  0  0  0  0  0
   -2.4489   15.2211    0.7974 C   0  0  0  0  0  0  0  0  0  0  0  0
   -3.9436   15.0136    0.8770 C   0  0  0  0  0  0  0  0  0  0  0  0
   -3.1474   14.3652   -1.2906 C   0  0  0  0  0  0  0  0  0  0  0  0
   -4.2268   14.0376   -0.2668 C   0  0  2  0  0  0  0  0  0  0  0  0
   -5.6345   14.1622   -0.8224 C   0  0  0  0  0  0  0  0  0  0  0  0
    1.5487   14.9211   -0.6187 N   0  0  0  0  0  0  0  0  0  0  0  0
   -2.0470   14.8323   -0.4828 N   0  0  0  0  0  0  0  0  0  0  0  0
    0.9086   15.4184   -4.1665 N   0  0  0  0  0  0  0  0  0  0  0  0
    2.9809   15.2043   -2.4113 O   0  0  0  0  0  0  0  0  0  0  0  0
   -1.7679   15.6874    1.7000 O   0  0  0  0  0  0  0  0  0  0  0  0
   -1.4805   15.2074   -3.0151 H   0  0  0  0  0  0  0  0  0  0  0  0
    0.1814   14.6708    0.9462 H   0  0  0  0  0  0  0  0  0  0  0  0
   -4.2237   14.5914    1.8457 H   0  0  0  0  0  0  0  0  0  0  0  0
   -4.4377   15.9803    0.7343 H   0  0  0  0  0  0  0  0  0  0  0  0
   -2.8593   13.4842   -1.8736 H   0  0  0  0  0  0  0  0  0  0  0  0
   -3.4449   15.1741   -1.9677 H   0  0  0  0  0  0  0  0  0  0  0  0
   -4.0730   13.0125    0.0971 H   0  0  0  0  0  0  0  0  0  0  0  0
   -5.8073   15.1755   -1.1896 H   0  0  0  0  0  0  0  0  0  0  0  0
   -6.3683   13.9419   -0.0449 H   0  0  0  0  0  0  0  0  0  0  0  0
   -5.7787   13.4616   -1.6479 H   0  0  0  0  0  0  0  0  0  0  0  0
    2.3236   14.8427    0.0333 H   0  0  0  0  0  0  0  0  0  0  0  0
    0.1449   15.4948   -4.7985 H   0  0  0  0  0  0  0  0  0  0  0  0
    1.8593   15.4774   -4.4503 H   0  0  0  0  0  0  0  0  0  0  0  0
  1  3  1  0  0  0  0
  1  4  2  0  0  0  0
  2  3  2  0  0  0  0
  2 11  1  0  0  0  0
  3 12  1  0  0  0  0
  4  5  1  0  0  0  0
  4 13  1  0  0  0  0
  5 11  1  0  0  0  0
  5 14  2  0  0  0  0
  6  7  1  0  0  0  0
  6 12  1  0  0  0  0
  6 15  2  0  0  0  0
  7  9  1  0  0  0  0
  8  9  1  0  0  0  0
  8 12  1  0  0  0  0
  9 10  1  0  0  0  0
  1 16  1  0  0  0  0
  2 17  1  0  0  0  0
  7 18  1  0  0  0  0
  7 19  1  0  0  0  0
  8 20  1  0  0  0  0
  8 21  1  0  0  0  0
  9 22  1  0  0  0  0
 10 23  1  0  0  0  0
 10 24  1  0  0  0  0
 10 25  1  0  0  0  0
 11 26  1  0  0  0  0
 13 27  1  0  0  0  0
 13 28  1  0  0  0  0
M  END
> <HYBRID receptor title>
5S18(A) > WOY(A-201)

> <HYBRID receptor filename>
experiments/data/docking/5s18.oedu

> <HYBRID Chemgauss4 score>
-6.964453

> <HYBRID receptor title>
5S18(A) > WOY(A-201)

> <HYBRID receptor filename>
experiments/data/docking/5s18.oedu

> <Dock Type>
Hybrid

$$$$
MOL0018
  -OEChem-07032415493D

 17 17  0     0  0  0  0  0  0999 V2000
   -2.3234   14.6216   -1.1674 C   0  0  0  0  0  0  0  0  0  0  0  0
   -3.7567   14.5923   -0.9193 C   0  0  0  0  0  0  0  0  0  0  0  0
   -1.4117   14.7705   -0.1927 C   0  0  0  0  0  0  0  0  0  0  0  0
   -4.1916   14.7216    0.3489 C   0  0  0  0  0  0  0  0  0  0  0  0
   -1.9107   14.9127    1.2145 C   0  0  0  0  0  0  0  0  0  0  0  0
   -4.6064   14.4158   -2.1458 C   0  0  0  0  0  0  0  0  0  0  0  0
   -3.2836   14.8765    1.3728 N   0  0  0  0  0  0  0  0  0  0  0  0
   -0.0609   14.8044   -0.3711 N   0  0  0  0  0  0  0  0  0  0  0  0
   -1.1303   15.0525    2.1544 O   0  0  0  0  0  0  0  0  0  0  0  0
   -3.8392   14.3190   -3.2490 F   0  0  0  0  0  0  0  0  0  0  0  0
   -5.3540   13.2986   -2.0579 F   0  0  0  0  0  0  0  0  0  0  0  0
   -5.4386   15.4632   -2.3060 F   0  0  0  0  0  0  0  0  0  0  0  0
   -5.9866   14.7102    0.8720 Br  0  0  0  0  0  0  0  0  0  0  0  0
   -1.9947   14.5161   -2.1984 H   0  0  0  0  0  0  0  0  0  0  0  0
   -3.6503   14.9712    2.3153 H   0  0  0  0  0  0  0  0  0  0  0  0
    0.3024   14.7127   -1.2955 H   0  0  0  0  0  0  0  0  0  0  0  0
    0.5247   14.9200    0.4274 H   0  0  0  0  0  0  0  0  0  0  0  0
  1  2  1  0  0  0  0
  1  3  2  0  0  0  0
  2  4  2  0  0  0  0
  2  6  1  0  0  0  0
  3  5  1  0  0  0  0
  3  8  1  0  0  0  0
  4  7  1  0  0  0  0
  4 13  1  0  0  0  0
  5  7  1  0  0  0  0
  5  9  2  0  0  0  0
  6 10  1  0  0  0  0
  6 11  1  0  0  0  0
  6 12  1  0  0  0  0
  1 14  1  0  0  0  0
  7 15  1  0  0  0  0
  8 16  1  0  0  0  0
  8 17  1  0  0  0  0
M  END
> <HYBRID receptor title>
5S18(A) > WOY(A-201)

> <HYBRID receptor filename>
experiments/data/docking/5s18.oedu

> <HYBRID Chemgauss4 score>
-6.960242

> <HYBRID receptor title>
5S18(A) > WOY(A-201)

> <HYBRID receptor filename>
experiments/data/docking/5s18.oedu

> <Dock Type>
Hybrid

$$$$
MOL0338
  -OEChem-07032415493D

 19 19  0     0  0  0  0  0  0999 V2000
   -3.7439   14.9423   -0.9986 C   0  0  0  0  0  0  0  0  0  0  0  0
   -4.9525   14.7194    1.0633 C   0  0  0  0  0  0  0  0  0  0  0  0
   -2.5676   15.0967   -0.3677 C   0  0  0  0  0  0  0  0  0  0  0  0
   -4.9853   14.7463   -0.2764 C   0  0  0  0  0  0  0  0  0  0  0  0
   -2.5460   15.0638    1.1337 C   0  0  0  0  0  0  0  0  0  0  0  0
   -1.2682   15.3011   -1.0786 C   0  0  0  0  0  0  0  0  0  0  0  0
   -6.2403   14.5848   -1.0738 C   0  0  0  0  0  0  0  0  0  0  0  0
   -3.7735   14.8725    1.7467 N   0  0  0  0  0  0  0  0  0  0  0  0
   -1.4951   15.2001    1.7564 O   0  0  0  0  0  0  0  0  0  0  0  0
   -0.5151   14.1029   -1.0431 O   0  0  0  0  0  0  0  0  0  0  0  0
   -5.9859   14.6532   -2.3976 F   0  0  0  0  0  0  0  0  0  0  0  0
   -6.8262   13.3942   -0.8281 F   0  0  0  0  0  0  0  0  0  0  0  0
   -7.1329   15.5522   -0.7751 F   0  0  0  0  0  0  0  0  0  0  0  0
   -3.7924   14.9614   -2.0835 H   0  0  0  0  0  0  0  0  0  0  0  0
   -5.8344   14.5780    1.6761 H   0  0  0  0  0  0  0  0  0  0  0  0
   -0.6990   16.1025   -0.6060 H   0  0  0  0  0  0  0  0  0  0  0  0
   -1.4555   15.5697   -2.1189 H   0  0  0  0  0  0  0  0  0  0  0  0
   -3.8129   14.8426    2.7613 H   0  0  0  0  0  0  0  0  0  0  0  0
    0.3184   14.2755   -1.5132 H   0  0  0  0  0  0  0  0  0  0  0  0
  1  3  2  0  0  0  0
  1  4  1  0  0  0  0
  2  4  2  0  0  0  0
  2  8  1  0  0  0  0
  3  5  1  0  0  0  0
  3  6  1  0  0  0  0
  4  7  1  0  0  0  0
  5  8  1  0  0  0  0
  5  9  2  0  0  0  0
  6 10  1  0  0  0  0
  7 11  1  0  0  0  0
  7 12  1  0  0  0  0
  7 13  1  0  0  0  0
  1 14  1  0  0  0  0
  2 15  1  0  0  0  0
  6 16  1  0  0  0  0
  6 17  1  0  0  0  0
  8 18  1  0  0  0  0
 10 19  1  0  0  0  0
M  END
> <HYBRID receptor title>
5S18(A) > WOY(A-201)

> <HYBRID receptor filename>
experiments/data/docking/5s18.oedu

> <HYBRID Chemgauss4 score>
-6.956201

> <HYBRID receptor title>
5S18(A) > WOY(A-201)

> <HYBRID receptor filename>
experiments/data/docking/5s18.oedu

> <Dock Type>
Hybrid

$$$$
MOL0410
  -OEChem-07032415493D

 25 25  0     0  0  0  0  0  0999 V2000
   -2.0580   14.3590   -1.6120 C   0  0  0  0  0  0  0  0  0  0  0  0
   -3.2454   14.1947   -1.5433 C   0  0  0  0  0  0  0  0  0  0  0  0
   -0.0735   15.1222   -2.8893 C   0  0  0  0  0  0  0  0  0  0  0  0
    0.1515   14.2160   -0.6774 C   0  0  0  0  0  0  0  0  0  0  0  0
   -0.6585   14.5521   -1.6925 C   0  0  0  0  0  0  0  0  0  0  0  0
    1.2494   15.3262   -3.0205 C   0  0  0  0  0  0  0  0  0  0  0  0
    2.1432   14.9427   -1.8700 C   0  0  0  0  0  0  0  0  0  0  0  0
   -4.6990   13.9956   -1.4614 C   0  0  0  0  0  0  0  0  0  0  0  0
   -5.0906   13.3403   -0.1383 C   0  0  0  0  0  0  0  0  0  0  0  0
   -4.6514   14.1653    1.0519 C   0  0  0  0  0  0  0  0  0  0  0  0
    1.5070   14.4050   -0.7627 N   0  0  0  0  0  0  0  0  0  0  0  0
    1.8608   15.8566   -4.1174 N   0  0  0  0  0  0  0  0  0  0  0  0
    3.3606   15.1051   -1.9309 O   0  0  0  0  0  0  0  0  0  0  0  0
   -4.9655   13.5572    2.2153 F   0  0  0  0  0  0  0  0  0  0  0  0
   -5.2318   15.3839    1.0471 F   0  0  0  0  0  0  0  0  0  0  0  0
   -3.3127   14.3485    1.0333 F   0  0  0  0  0  0  0  0  0  0  0  0
   -0.7460   15.3882   -3.7009 H   0  0  0  0  0  0  0  0  0  0  0  0
   -0.2016   13.7847    0.2520 H   0  0  0  0  0  0  0  0  0  0  0  0
   -5.2055   14.9625   -1.5625 H   0  0  0  0  0  0  0  0  0  0  0  0
   -5.0294   13.3707   -2.2993 H   0  0  0  0  0  0  0  0  0  0  0  0
   -6.1778   13.2005   -0.0971 H   0  0  0  0  0  0  0  0  0  0  0  0
   -4.6421   12.3418   -0.0680 H   0  0  0  0  0  0  0  0  0  0  0  0
    2.0784   14.1349    0.0325 H   0  0  0  0  0  0  0  0  0  0  0  0
    1.2986   16.1216   -4.8973 H   0  0  0  0  0  0  0  0  0  0  0  0
    2.8518   15.9641   -4.1077 H   0  0  0  0  0  0  0  0  0  0  0  0
  1  2  3  0  0  0  0
  1  5  1  0  0  0  0
  2  8  1  0  0  0  0
  3  5  1  0  0  0  0
  3  6  2  0  0  0  0
  4  5  2  0  0  0  0
  4 11  1  0  0  0  0
  6  7  1  0  0  0  0
  6 12  1  0  0  0  0
  7 11  1  0  0  0  0
  7 13  2  0  0  0  0
  8  9  1  0  0  0  0
  9 10  1  0  0  0  0
 10 14  1  0  0  0  0
 10 15  1  0  0  0  0
 10 16  1  0  0  0  0
  3 17  1  0  0  0  0
  4 18  1  0  0  0  0
  8 19  1  0  0  0  0
  8 20  1  0  0  0  0
  9 21  1  0  0  0  0
  9 22  1  0  0  0  0
 11 23  1  0  0  0  0
 12 24  1  0  0  0  0
 12 25  1  0  0  0  0
M  END
> <HYBRID receptor title>
5S18(A) > WOY(A-201)

> <HYBRID receptor filename>
experiments/data/docking/5s18.oedu

> <HYBRID Chemgauss4 score>
-6.953548

> <HYBRID receptor title>
5S18(A) > WOY(A-201)

> <HYBRID receptor filename>
experiments/data/docking/5s18.oedu

> <Dock Type>
Hybrid

$$$$
MOL0149
  -OEChem-07032415493D

 24 24  0     0  0  0  0  0  0999 V2000
   -2.1982   14.8297   -0.8652 C   0  0  0  0  0  0  0  0  0  0  0  0
   -3.8811   14.8821    0.8441 C   0  0  0  0  0  0  0  0  0  0  0  0
   -3.5900   14.8702   -0.4639 C   0  0  0  0  0  0  0  0  0  0  0  0
   -1.1904   14.8034    0.0239 C   0  0  0  0  0  0  0  0  0  0  0  0
   -1.5380   14.8175    1.4890 C   0  0  0  0  0  0  0  0  0  0  0  0
   -7.2441   13.1737   -2.6729 C   0  0  0  0  0  0  0  0  0  0  0  0
   -4.6282   14.8966   -1.5400 C   0  0  0  0  0  0  0  0  0  0  0  0
   -6.0339   14.9380   -0.9587 C   0  0  0  0  0  0  0  0  0  0  0  0
   -2.8897   14.8566    1.7897 N   0  0  0  0  0  0  0  0  0  0  0  0
    0.1360   14.7649   -0.2880 N   0  0  0  0  0  0  0  0  0  0  0  0
   -0.6599   14.7948    2.3495 O   0  0  0  0  0  0  0  0  0  0  0  0
   -7.3149   14.9290   -2.2515 S   0  0  0  0  0  0  0  0  0  0  0  0
   -1.9851   14.8211   -1.9308 H   0  0  0  0  0  0  0  0  0  0  0  0
   -4.8938   14.9119    1.2269 H   0  0  0  0  0  0  0  0  0  0  0  0
   -7.9662   12.9516   -3.4626 H   0  0  0  0  0  0  0  0  0  0  0  0
   -6.2415   12.9163   -3.0227 H   0  0  0  0  0  0  0  0  0  0  0  0
   -7.4815   12.5705   -1.7928 H   0  0  0  0  0  0  0  0  0  0  0  0
   -4.4335   15.7449   -2.2033 H   0  0  0  0  0  0  0  0  0  0  0  0
   -4.5060   13.9760   -2.1200 H   0  0  0  0  0  0  0  0  0  0  0  0
   -6.1774   15.8288   -0.3389 H   0  0  0  0  0  0  0  0  0  0  0  0
   -6.1947   14.0576   -0.3281 H   0  0  0  0  0  0  0  0  0  0  0  0
   -3.1618   14.8671    2.7683 H   0  0  0  0  0  0  0  0  0  0  0  0
    0.4015   14.7549   -1.2492 H   0  0  0  0  0  0  0  0  0  0  0  0
    0.8018   14.7479    0.4538 H   0  0  0  0  0  0  0  0  0  0  0  0
  1  3  1  0  0  0  0
  1  4  2  0  0  0  0
  2  3  2  0  0  0  0
  2  9  1  0  0  0  0
  3  7  1  0  0  0  0
  4  5  1  0  0  0  0
  4 10  1  0  0  0  0
  5  9  1  0  0  0  0
  5 11  2  0  0  0  0
  6 12  1  0  0  0  0
  7  8  1  0  0  0  0
  8 12  1  0  0  0  0
  1 13  1  0  0  0  0
  2 14  1  0  0  0  0
  6 15  1  0  0  0  0
  6 16  1  0  0  0  0
  6 17  1  0  0  0  0
  7 18  1  0  0  0  0
  7 19  1  0  0  0  0
  8 20  1  0  0  0  0
  8 21  1  0  0  0  0
  9 22  1  0  0  0  0
 10 23  1  0  0  0  0
 10 24  1  0  0  0  0
M  END
> <HYBRID receptor title>
5S18(A) > WOY(A-201)

> <HYBRID receptor filename>
experiments/data/docking/5s18.oedu

> <HYBRID Chemgauss4 score>
-6.946743

> <HYBRID receptor title>
5S18(A) > WOY(A-201)

> <HYBRID receptor filename>
experiments/data/docking/5s18.oedu

> <Dock Type>
Hybrid

$$$$
MOL0247
  -OEChem-07032415493D

 29 30  0     1  0  0  0  0  0999 V2000
   -4.6871   14.3909   -1.3373 C   0  0  0  0  0  0  0  0  0  0  0  0
   -3.4738   14.5532    0.7643 C   0  0  0  0  0  0  0  0  0  0  0  0
   -3.4758   14.4701   -0.5697 C   0  0  0  0  0  0  0  0  0  0  0  0
   -5.8429   14.4035   -0.6637 C   0  0  0  0  0  0  0  0  0  0  0  0
   -5.9151   14.4952    0.8198 C   0  0  0  0  0  0  0  0  0  0  0  0
   -0.9860   14.5281   -0.6707 C   0  0  0  0  0  0  0  0  0  0  0  0
   -2.2379   14.3785   -2.7291 C   0  0  0  0  0  0  0  0  0  0  0  0
   -0.0449   14.1442   -1.8141 C   0  0  1  0  0  0  0  0  0  0  0  0
   -0.7780   14.6814   -3.0373 C   0  0  1  0  0  0  0  0  0  0  0  0
    1.3568   14.7091   -1.6633 C   0  0  0  0  0  0  0  0  0  0  0  0
   -4.6719   14.5655    1.4464 N   0  0  0  0  0  0  0  0  0  0  0  0
   -2.3144   14.4560   -1.2743 N   0  0  3  0  0  0  0  0  0  0  0  0
   -7.0580   14.3327   -1.2915 N   0  0  0  0  0  0  0  0  0  0  0  0
   -6.9829   14.5066    1.4261 O   0  0  0  0  0  0  0  0  0  0  0  0
   -0.3772   14.0284   -4.1513 F   0  0  0  0  0  0  0  0  0  0  0  0
   -4.6501   14.3237   -2.4191 H   0  0  0  0  0  0  0  0  0  0  0  0
   -2.5800   14.6140    1.3725 H   0  0  0  0  0  0  0  0  0  0  0  0
   -0.9207   13.7963    0.1398 H   0  0  0  0  0  0  0  0  0  0  0  0
   -0.7709   15.5213   -0.2691 H   0  0  0  0  0  0  0  0  0  0  0  0
   -2.8982   15.1324   -3.1718 H   0  0  0  0  0  0  0  0  0  0  0  0
   -2.5216   13.3849   -3.0923 H   0  0  0  0  0  0  0  0  0  0  0  0
    0.0219   13.0334   -1.8774 H   0  0  0  0  0  0  0  0  0  0  0  0
   -0.6027   15.7680   -3.2002 H   0  0  0  0  0  0  0  0  0  0  0  0
    1.3128   15.7951   -1.5996 H   0  0  0  0  0  0  0  0  0  0  0  0
    1.9636   14.4267   -2.5220 H   0  0  0  0  0  0  0  0  0  0  0  0
    1.8181   14.3176   -0.7571 H   0  0  0  0  0  0  0  0  0  0  0  0
   -4.6473   14.6293    2.4599 H   0  0  0  0  0  0  0  0  0  0  0  0
   -7.0739   14.2699   -2.2836 H   0  0  0  0  0  0  0  0  0  0  0  0
   -7.8797   14.3466   -0.7326 H   0  0  0  0  0  0  0  0  0  0  0  0
  1  3  1  0  0  0  0
  1  4  2  0  0  0  0
  2  3  2  0  0  0  0
  2 11  1  0  0  0  0
  3 12  1  0  0  0  0
  4  5  1  0  0  0  0
  4 13  1  0  0  0  0
  5 11  1  0  0  0  0
  5 14  2  0  0  0  0
  6  8  1  0  0  0  0
  6 12  1  0  0  0  0
  7  9  1  0  0  0  0
  7 12  1  0  0  0  0
  8  9  1  0  0  0  0
  8 10  1  0  0  0  0
  9 15  1  0  0  0  0
  1 16  1  0  0  0  0
  2 17  1  0  0  0  0
  6 18  1  0  0  0  0
  6 19  1  0  0  0  0
  7 20  1  0  0  0  0
  7 21  1  0  0  0  0
  8 22  1  0  0  0  0
  9 23  1  0  0  0  0
 10 24  1  0  0  0  0
 10 25  1  0  0  0  0
 10 26  1  0  0  0  0
 11 27  1  0  0  0  0
 13 28  1  0  0  0  0
 13 29  1  0  0  0  0
M  END
> <HYBRID receptor title>
5S18(A) > WOY(A-201)

> <HYBRID receptor filename>
experiments/data/docking/5s18.oedu

> <HYBRID Chemgauss4 score>
-6.940653

> <HYBRID receptor title>
5S18(A) > WOY(A-201)

> <HYBRID receptor filename>
experiments/data/docking/5s18.oedu

> <Dock Type>
Hybrid

$$$$
MOL0163
  -OEChem-07032415493D

 21 22  0     0  0  0  0  0  0999 V2000
   -4.8529   15.0051   -2.9572 C   0  0  0  0  0  0  0  0  0  0  0  0
   -6.0258   14.8284   -3.6576 C   0  0  0  0  0  0  0  0  0  0  0  0
   -6.2805   14.2743   -1.2748 C   0  0  0  0  0  0  0  0  0  0  0  0
   -5.0000   14.6841   -1.5767 C   0  0  0  0  0  0  0  0  0  0  0  0
   -2.5811   14.5548   -0.9910 C   0  0  0  0  0  0  0  0  0  0  0  0
   -4.2277   15.0354    0.6843 C   0  0  0  0  0  0  0  0  0  0  0  0
   -3.9676   14.7650   -0.6057 C   0  0  0  0  0  0  0  0  0  0  0  0
   -1.5621   14.6177   -0.1160 C   0  0  0  0  0  0  0  0  0  0  0  0
   -1.8827   14.9206    1.3220 C   0  0  0  0  0  0  0  0  0  0  0  0
   -3.2225   15.1094    1.6134 N   0  0  0  0  0  0  0  0  0  0  0  0
   -0.2470   14.4293   -0.4214 N   0  0  0  0  0  0  0  0  0  0  0  0
   -0.9945   14.9916    2.1696 O   0  0  0  0  0  0  0  0  0  0  0  0
   -7.2981   14.2778   -2.6520 S   0  0  0  0  0  0  0  0  0  0  0  0
   -3.9366   15.3484   -3.4216 H   0  0  0  0  0  0  0  0  0  0  0  0
   -6.1959   14.9944   -4.7120 H   0  0  0  0  0  0  0  0  0  0  0  0
   -6.6764   13.9717   -0.3144 H   0  0  0  0  0  0  0  0  0  0  0  0
   -2.3813   14.3379   -2.0377 H   0  0  0  0  0  0  0  0  0  0  0  0
   -5.2270   15.2077    1.0674 H   0  0  0  0  0  0  0  0  0  0  0  0
   -3.4871   15.3175    2.5719 H   0  0  0  0  0  0  0  0  0  0  0  0
    0.0006   14.2272   -1.3661 H   0  0  0  0  0  0  0  0  0  0  0  0
    0.4284   14.4992    0.3084 H   0  0  0  0  0  0  0  0  0  0  0  0
  1  2  2  0  0  0  0
  1  4  1  0  0  0  0
  2 13  1  0  0  0  0
  3  4  2  0  0  0  0
  3 13  1  0  0  0  0
  4  7  1  0  0  0  0
  5  7  1  0  0  0  0
  5  8  2  0  0  0  0
  6  7  2  0  0  0  0
  6 10  1  0  0  0  0
  8  9  1  0  0  0  0
  8 11  1  0  0  0  0
  9 10  1  0  0  0  0
  9 12  2  0  0  0  0
  1 14  1  0  0  0  0
  2 15  1  0  0  0  0
  3 16  1  0  0  0  0
  5 17  1  0  0  0  0
  6 18  1  0  0  0  0
 10 19  1  0  0  0  0
 11 20  1  0  0  0  0
 11 21  1  0  0  0  0
M  END
> <HYBRID receptor title>
5S18(A) > WOY(A-201)

> <HYBRID receptor filename>
experiments/data/docking/5s18.oedu

> <HYBRID Chemgauss4 score>
-6.930856

> <HYBRID receptor title>
5S18(A) > WOY(A-201)

> <HYBRID receptor filename>
experiments/data/docking/5s18.oedu

> <Dock Type>
Hybrid

$$$$
MOL0204
  -OEChem-07032415493D

 27 27  0     0  0  0  0  0  0999 V2000
   -1.9188   14.5837   -1.0904 C   0  0  0  0  0  0  0  0  0  0  0  0
   -3.8205   14.8296    0.3517 C   0  0  0  0  0  0  0  0  0  0  0  0
   -3.3522   14.6601   -0.8924 C   0  0  0  0  0  0  0  0  0  0  0  0
   -1.0432   14.6759   -0.0747 C   0  0  0  0  0  0  0  0  0  0  0  0
   -1.5890   14.8663    1.3158 C   0  0  0  0  0  0  0  0  0  0  0  0
   -3.1977   14.4420   -4.4513 C   0  0  0  0  0  0  0  0  0  0  0  0
   -3.5080   15.0913   -3.3220 C   0  0  0  0  0  0  0  0  0  0  0  0
   -4.5408   13.0562   -2.3666 C   0  0  0  0  0  0  0  0  0  0  0  0
   -5.5642   15.2625   -1.7921 C   0  0  0  0  0  0  0  0  0  0  0  0
   -4.2321   14.5448   -2.0961 C   0  0  0  0  0  0  0  0  0  0  0  0
   -2.9689   14.9295    1.4206 N   0  0  0  0  0  0  0  0  0  0  0  0
    0.3132   14.6117   -0.1941 N   0  0  0  0  0  0  0  0  0  0  0  0
   -0.8379   14.9574    2.2851 O   0  0  0  0  0  0  0  0  0  0  0  0
   -1.5611   14.4464   -2.1073 H   0  0  0  0  0  0  0  0  0  0  0  0
   -4.8759   14.8967    0.5850 H   0  0  0  0  0  0  0  0  0  0  0  0
   -2.6782   14.9173   -5.2739 H   0  0  0  0  0  0  0  0  0  0  0  0
   -3.4682   13.3977   -4.5688 H   0  0  0  0  0  0  0  0  0  0  0  0
   -3.2151   16.1397   -3.2677 H   0  0  0  0  0  0  0  0  0  0  0  0
   -5.1862   12.9367   -3.2457 H   0  0  0  0  0  0  0  0  0  0  0  0
   -3.6256   12.4799   -2.5506 H   0  0  0  0  0  0  0  0  0  0  0  0
   -5.0578   12.5917   -1.5171 H   0  0  0  0  0  0  0  0  0  0  0  0
   -6.2472   15.2055   -2.6490 H   0  0  0  0  0  0  0  0  0  0  0  0
   -6.0802   14.8083   -0.9375 H   0  0  0  0  0  0  0  0  0  0  0  0
   -5.4149   16.3256   -1.5691 H   0  0  0  0  0  0  0  0  0  0  0  0
   -3.3730   15.0573    2.3437 H   0  0  0  0  0  0  0  0  0  0  0  0
    0.7084   14.4865   -1.1011 H   0  0  0  0  0  0  0  0  0  0  0  0
    0.8704   14.6920    0.6287 H   0  0  0  0  0  0  0  0  0  0  0  0
  1  3  1  0  0  0  0
  1  4  2  0  0  0  0
  2  3  2  0  0  0  0
  2 11  1  0  0  0  0
  3 10  1  0  0  0  0
  4  5  1  0  0  0  0
  4 12  1  0  0  0  0
  5 11  1  0  0  0  0
  5 13  2  0  0  0  0
  6  7  2  0  0  0  0
  7 10  1  0  0  0  0
  8 10  1  0  0  0  0
  9 10  1  0  0  0  0
  1 14  1  0  0  0  0
  2 15  1  0  0  0  0
  6 16  1  0  0  0  0
  6 17  1  0  0  0  0
  7 18  1  0  0  0  0
  8 19  1  0  0  0  0
  8 20  1  0  0  0  0
  8 21  1  0  0  0  0
  9 22  1  0  0  0  0
  9 23  1  0  0  0  0
  9 24  1  0  0  0  0
 11 25  1  0  0  0  0
 12 26  1  0  0  0  0
 12 27  1  0  0  0  0
M  END
> <HYBRID receptor title>
5S18(A) > WOY(A-201)

> <HYBRID receptor filename>
experiments/data/docking/5s18.oedu

> <HYBRID Chemgauss4 score>
-6.928995

> <HYBRID receptor title>
5S18(A) > WOY(A-201)

> <HYBRID receptor filename>
experiments/data/docking/5s18.oedu

> <Dock Type>
Hybrid

$$$$
MOL0224
  -OEChem-07032415493D

 27 28  0     0  0  0  0  0  0999 V2000
   -1.8100   15.0235   -1.0152 C   0  0  0  0  0  0  0  0  0  0  0  0
    0.4975   14.3668   -1.0452 C   0  0  0  0  0  0  0  0  0  0  0  0
   -0.6096   14.6601   -1.7409 C   0  0  0  0  0  0  0  0  0  0  0  0
   -1.8541   15.0775    0.3272 C   0  0  0  0  0  0  0  0  0  0  0  0
   -0.5999   14.7443    1.0911 C   0  0  0  0  0  0  0  0  0  0  0  0
   -5.7247   13.7145    1.1603 C   0  0  0  0  0  0  0  0  0  0  0  0
   -6.4922   14.4957    0.1305 C   0  0  0  0  0  0  0  0  0  0  0  0
   -4.9888   14.5002    0.1101 C   0  0  0  0  0  0  0  0  0  0  0  0
   -4.2225   15.7555    0.4898 C   0  0  0  0  0  0  0  0  0  0  0  0
   -0.6761   14.6331   -3.2347 C   0  0  0  0  0  0  0  0  0  0  0  0
    0.5036   14.4071    0.3245 N   0  0  0  0  0  0  0  0  0  0  0  0
   -2.9487   15.4115    1.0677 N   0  0  0  0  0  0  0  0  0  0  0  0
   -0.5783   14.7762    2.3201 O   0  0  0  0  0  0  0  0  0  0  0  0
   -1.9080   14.9697   -3.6716 F   0  0  0  0  0  0  0  0  0  0  0  0
    0.2046   15.4986   -3.7794 F   0  0  0  0  0  0  0  0  0  0  0  0
   -0.3919   13.4026   -3.7111 F   0  0  0  0  0  0  0  0  0  0  0  0
   -2.6961   15.2570   -1.5993 H   0  0  0  0  0  0  0  0  0  0  0  0
    1.4344   14.0861   -1.5104 H   0  0  0  0  0  0  0  0  0  0  0  0
   -5.7275   14.0845    2.1781 H   0  0  0  0  0  0  0  0  0  0  0  0
   -5.7225   12.6347    1.0754 H   0  0  0  0  0  0  0  0  0  0  0  0
   -7.0050   13.9396   -0.6446 H   0  0  0  0  0  0  0  0  0  0  0  0
   -7.0093   15.3888    0.4588 H   0  0  0  0  0  0  0  0  0  0  0  0
   -4.4950   13.9453   -0.6785 H   0  0  0  0  0  0  0  0  0  0  0  0
   -4.0616   16.3730   -0.3998 H   0  0  0  0  0  0  0  0  0  0  0  0
   -4.8048   16.3444    1.2060 H   0  0  0  0  0  0  0  0  0  0  0  0
    1.3678   14.1762    0.8059 H   0  0  0  0  0  0  0  0  0  0  0  0
   -2.8566   15.4136    2.0700 H   0  0  0  0  0  0  0  0  0  0  0  0
  1  3  1  0  0  0  0
  1  4  2  0  0  0  0
  2  3  2  0  0  0  0
  2 11  1  0  0  0  0
  3 10  1  0  0  0  0
  4  5  1  0  0  0  0
  4 12  1  0  0  0  0
  5 11  1  0  0  0  0
  5 13  2  0  0  0  0
  6  7  1  0  0  0  0
  6  8  1  0  0  0  0
  7  8  1  0  0  0  0
  8  9  1  0  0  0  0
  9 12  1  0  0  0  0
 10 14  1  0  0  0  0
 10 15  1  0  0  0  0
 10 16  1  0  0  0  0
  1 17  1  0  0  0  0
  2 18  1  0  0  0  0
  6 19  1  0  0  0  0
  6 20  1  0  0  0  0
  7 21  1  0  0  0  0
  7 22  1  0  0  0  0
  8 23  1  0  0  0  0
  9 24  1  0  0  0  0
  9 25  1  0  0  0  0
 11 26  1  0  0  0  0
 12 27  1  0  0  0  0
M  END
> <HYBRID receptor title>
5S18(A) > WOY(A-201)

> <HYBRID receptor filename>
experiments/data/docking/5s18.oedu

> <HYBRID Chemgauss4 score>
-6.924479

> <HYBRID receptor title>
5S18(A) > WOY(A-201)

> <HYBRID receptor filename>
experiments/data/docking/5s18.oedu

> <Dock Type>
Hybrid

$$$$
MOL0041
  -OEChem-07032415493D

 20 20  0     0  0  0  0  0  0999 V2000
   -3.0465   14.9326   -1.1716 C   0  0  0  0  0  0  0  0  0  0  0  0
   -4.5975   14.7384    0.6568 C   0  0  0  0  0  0  0  0  0  0  0  0
   -4.3910   14.8322   -0.6607 C   0  0  0  0  0  0  0  0  0  0  0  0
   -1.9751   14.9359   -0.3587 C   0  0  0  0  0  0  0  0  0  0  0  0
   -2.2121   14.8305    1.1269 C   0  0  0  0  0  0  0  0  0  0  0  0
   -5.5508   14.8292   -1.5522 C   0  0  0  0  0  0  0  0  0  0  0  0
   -7.8250   15.4481   -1.6450 C   0  0  0  0  0  0  0  0  0  0  0  0
   -3.5367   14.7378    1.5262 N   0  0  0  0  0  0  0  0  0  0  0  0
   -0.6770   15.0274   -0.7644 N   0  0  0  0  0  0  0  0  0  0  0  0
   -1.2719   14.8288    1.9196 O   0  0  0  0  0  0  0  0  0  0  0  0
   -5.5279   14.3922   -2.6928 O   0  0  0  0  0  0  0  0  0  0  0  0
   -6.6055   15.3794   -0.8978 O   0  0  0  0  0  0  0  0  0  0  0  0
   -2.9179   15.0070   -2.2477 H   0  0  0  0  0  0  0  0  0  0  0  0
   -5.5765   14.6597    1.1138 H   0  0  0  0  0  0  0  0  0  0  0  0
   -8.6052   15.9044   -1.0303 H   0  0  0  0  0  0  0  0  0  0  0  0
   -7.6622   16.0592   -2.5361 H   0  0  0  0  0  0  0  0  0  0  0  0
   -8.1257   14.4420   -1.9463 H   0  0  0  0  0  0  0  0  0  0  0  0
   -3.7436   14.6649    2.5180 H   0  0  0  0  0  0  0  0  0  0  0  0
   -0.4845   15.0987   -1.7404 H   0  0  0  0  0  0  0  0  0  0  0  0
    0.0418   15.0205   -0.0738 H   0  0  0  0  0  0  0  0  0  0  0  0
  1  3  1  0  0  0  0
  1  4  2  0  0  0  0
  2  3  2  0  0  0  0
  2  8  1  0  0  0  0
  3  6  1  0  0  0  0
  4  5  1  0  0  0  0
  4  9  1  0  0  0  0
  5  8  1  0  0  0  0
  5 10  2  0  0  0  0
  6 11  2  0  0  0  0
  6 12  1  0  0  0  0
  7 12  1  0  0  0  0
  1 13  1  0  0  0  0
  2 14  1  0  0  0  0
  7 15  1  0  0  0  0
  7 16  1  0  0  0  0
  7 17  1  0  0  0  0
  8 18  1  0  0  0  0
  9 19  1  0  0  0  0
  9 20  1  0  0  0  0
M  END
> <HYBRID receptor title>
5S18(A) > WOY(A-201)

> <HYBRID receptor filename>
experiments/data/docking/5s18.oedu

> <HYBRID Chemgauss4 score>
-6.917596

> <HYBRID receptor title>
5S18(A) > WOY(A-201)

> <HYBRID receptor filename>
experiments/data/docking/5s18.oedu

> <Dock Type>
Hybrid

$$$$
MOL0110
  -OEChem-07032415493D

 26 27  0     0  0  0  0  0  0999 V2000
   -2.8954   14.6806   -1.2534 C   0  0  0  0  0  0  0  0  0  0  0  0
   -4.5787   14.9773    0.4768 C   0  0  0  0  0  0  0  0  0  0  0  0
   -4.2553   14.8075   -0.8088 C   0  0  0  0  0  0  0  0  0  0  0  0
   -1.9370   14.7378   -0.3218 C   0  0  0  0  0  0  0  0  0  0  0  0
   -2.2247   14.9237    1.1263 C   0  0  0  0  0  0  0  0  0  0  0  0
   -6.4685   13.9939   -3.5949 C   0  0  0  0  0  0  0  0  0  0  0  0
   -7.0674   15.3012   -3.0827 C   0  0  0  0  0  0  0  0  0  0  0  0
   -5.0711   13.9877   -2.9942 C   0  0  0  0  0  0  0  0  0  0  0  0
   -6.4812   15.4327   -1.6854 C   0  0  0  0  0  0  0  0  0  0  0  0
   -3.5814   15.0343    1.4270 N   0  0  0  0  0  0  0  0  0  0  0  0
   -5.2046   14.7467   -1.7645 N   0  0  0  0  0  0  0  0  0  0  0  0
   -0.6072   14.6287   -0.6306 N   0  0  0  0  0  0  0  0  0  0  0  0
   -1.3354   14.9737    1.9716 O   0  0  0  0  0  0  0  0  0  0  0  0
   -2.6705   14.5446   -2.3056 H   0  0  0  0  0  0  0  0  0  0  0  0
   -5.5922   15.0766    0.8451 H   0  0  0  0  0  0  0  0  0  0  0  0
   -7.0474   13.1440   -3.2143 H   0  0  0  0  0  0  0  0  0  0  0  0
   -6.4567   13.9430   -4.6872 H   0  0  0  0  0  0  0  0  0  0  0  0
   -6.7356   16.1355   -3.7121 H   0  0  0  0  0  0  0  0  0  0  0  0
   -8.1609   15.2835   -3.0801 H   0  0  0  0  0  0  0  0  0  0  0  0
   -4.7215   12.9641   -2.8170 H   0  0  0  0  0  0  0  0  0  0  0  0
   -4.3610   14.4895   -3.6629 H   0  0  0  0  0  0  0  0  0  0  0  0
   -6.3721   16.4852   -1.3996 H   0  0  0  0  0  0  0  0  0  0  0  0
   -7.1234   14.9352   -0.9486 H   0  0  0  0  0  0  0  0  0  0  0  0
   -3.8495   15.1639    2.3981 H   0  0  0  0  0  0  0  0  0  0  0  0
   -0.3526   14.5027   -1.5834 H   0  0  0  0  0  0  0  0  0  0  0  0
    0.0549   14.6796    0.1088 H   0  0  0  0  0  0  0  0  0  0  0  0
  1  3  1  0  0  0  0
  1  4  2  0  0  0  0
  2  3  2  0  0  0  0
  2 10  1  0  0  0  0
  3 11  1  0  0  0  0
  4  5  1  0  0  0  0
  4 12  1  0  0  0  0
  5 10  1  0  0  0  0
  5 13  2  0  0  0  0
  6  7  1  0  0  0  0
  6  8  1  0  0  0  0
  7  9  1  0  0  0  0
  8 11  1  0  0  0  0
  9 11  1  0  0  0  0
  1 14  1  0  0  0  0
  2 15  1  0  0  0  0
  6 16  1  0  0  0  0
  6 17  1  0  0  0  0
  7 18  1  0  0  0  0
  7 19  1  0  0  0  0
  8 20  1  0  0  0  0
  8 21  1  0  0  0  0
  9 22  1  0  0  0  0
  9 23  1  0  0  0  0
 10 24  1  0  0  0  0
 12 25  1  0  0  0  0
 12 26  1  0  0  0  0
M  END
> <HYBRID receptor title>
5S18(A) > WOY(A-201)

> <HYBRID receptor filename>
experiments/data/docking/5s18.oedu

> <HYBRID Chemgauss4 score>
-6.916894

> <HYBRID receptor title>
5S18(A) > WOY(A-201)

> <HYBRID receptor filename>
experiments/data/docking/5s18.oedu

> <Dock Type>
Hybrid

$$$$
MOL0330
  -OEChem-07032415493D

 32 32  0     0  0  0  0  0  0999 V2000
   -5.3155   14.3760   -0.9692 C   0  0  0  0  0  0  0  0  0  0  0  0
   -3.6999   15.0703    0.6631 C   0  0  0  0  0  0  0  0  0  0  0  0
   -3.9762   14.8061   -0.6213 C   0  0  0  0  0  0  0  0  0  0  0  0
   -6.2891   14.2328   -0.0535 C   0  0  0  0  0  0  0  0  0  0  0  0
   -5.9589   14.5344    1.3844 C   0  0  0  0  0  0  0  0  0  0  0  0
   -1.7593   13.9697   -4.3793 C   0  0  0  0  0  0  0  0  0  0  0  0
   -0.3753   12.3077   -3.1286 C   0  0  0  0  0  0  0  0  0  0  0  0
   -0.0686   14.7624   -2.7189 C   0  0  0  0  0  0  0  0  0  0  0  0
   -2.9742   14.9309   -1.7217 C   0  0  0  0  0  0  0  0  0  0  0  0
   -2.2113   13.6191   -1.9400 C   0  0  0  0  0  0  0  0  0  0  0  0
   -1.0980   13.6606   -3.0216 C   0  0  0  0  0  0  0  0  0  0  0  0
   -4.6578   14.9393    1.6341 N   0  0  0  0  0  0  0  0  0  0  0  0
   -7.5657   13.8332   -0.3153 N   0  0  0  0  0  0  0  0  0  0  0  0
   -6.8074   14.4218    2.2672 O   0  0  0  0  0  0  0  0  0  0  0  0
   -5.5173   14.1669   -2.0163 H   0  0  0  0  0  0  0  0  0  0  0  0
   -2.7257   15.3960    1.0061 H   0  0  0  0  0  0  0  0  0  0  0  0
   -2.2896   14.9281   -4.3547 H   0  0  0  0  0  0  0  0  0  0  0  0
   -1.0130   14.0238   -5.1796 H   0  0  0  0  0  0  0  0  0  0  0  0
   -2.4861   13.1957   -4.6510 H   0  0  0  0  0  0  0  0  0  0  0  0
    0.1116   12.0456   -2.1831 H   0  0  0  0  0  0  0  0  0  0  0  0
   -1.0682   11.4952   -3.3697 H   0  0  0  0  0  0  0  0  0  0  0  0
    0.3986   12.3334   -3.9044 H   0  0  0  0  0  0  0  0  0  0  0  0
    0.4282   14.5825   -1.7587 H   0  0  0  0  0  0  0  0  0  0  0  0
   -0.5361   15.7509   -2.6593 H   0  0  0  0  0  0  0  0  0  0  0  0
    0.7073   14.8012   -3.4911 H   0  0  0  0  0  0  0  0  0  0  0  0
   -2.2853   15.7415   -1.4643 H   0  0  0  0  0  0  0  0  0  0  0  0
   -3.5048   15.2202   -2.6336 H   0  0  0  0  0  0  0  0  0  0  0  0
   -2.9326   12.8327   -2.2037 H   0  0  0  0  0  0  0  0  0  0  0  0
   -1.7639   13.3092   -0.9848 H   0  0  0  0  0  0  0  0  0  0  0  0
   -4.3987   15.1515    2.5932 H   0  0  0  0  0  0  0  0  0  0  0  0
   -7.8184   13.6250   -1.2573 H   0  0  0  0  0  0  0  0  0  0  0  0
   -8.2094   13.7605    0.4425 H   0  0  0  0  0  0  0  0  0  0  0  0
  1  3  1  0  0  0  0
  1  4  2  0  0  0  0
  2  3  2  0  0  0  0
  2 12  1  0  0  0  0
  3  9  1  0  0  0  0
  4  5  1  0  0  0  0
  4 13  1  0  0  0  0
  5 12  1  0  0  0  0
  5 14  2  0  0  0  0
  6 11  1  0  0  0  0
  7 11  1  0  0  0  0
  8 11  1  0  0  0  0
  9 10  1  0  0  0  0
 10 11  1  0  0  0  0
  1 15  1  0  0  0  0
  2 16  1  0  0  0  0
  6 17  1  0  0  0  0
  6 18  1  0  0  0  0
  6 19  1  0  0  0  0
  7 20  1  0  0  0  0
  7 21  1  0  0  0  0
  7 22  1  0  0  0  0
  8 23  1  0  0  0  0
  8 24  1  0  0  0  0
  8 25  1  0  0  0  0
  9 26  1  0  0  0  0
  9 27  1  0  0  0  0
 10 28  1  0  0  0  0
 10 29  1  0  0  0  0
 12 30  1  0  0  0  0
 13 31  1  0  0  0  0
 13 32  1  0  0  0  0
M  END
> <HYBRID receptor title>
5S18(A) > WOY(A-201)

> <HYBRID receptor filename>
experiments/data/docking/5s18.oedu

> <HYBRID Chemgauss4 score>
-6.916423

> <HYBRID receptor title>
5S18(A) > WOY(A-201)

> <HYBRID receptor filename>
experiments/data/docking/5s18.oedu

> <Dock Type>
Hybrid

$$$$
MOL0160
  -OEChem-07032415493D

 29 30  0     0  0  0  0  0  0999 V2000
   -3.6593   14.7107   -1.3070 C   0  0  0  0  0  0  0  0  0  0  0  0
   -2.5548   14.7484    0.8595 C   0  0  0  0  0  0  0  0  0  0  0  0
   -2.4889   14.7031   -0.4747 C   0  0  0  0  0  0  0  0  0  0  0  0
   -4.8476   14.7665   -0.6950 C   0  0  0  0  0  0  0  0  0  0  0  0
   -4.9952   14.8202    0.7848 C   0  0  0  0  0  0  0  0  0  0  0  0
   -0.1779   15.5540   -1.1168 C   0  0  0  0  0  0  0  0  0  0  0  0
   -0.6268   13.5545   -1.7744 C   0  0  0  0  0  0  0  0  0  0  0  0
    0.5122   14.5587   -2.0832 C   0  0  0  0  0  0  0  0  0  0  0  0
    1.8896   14.0966   -1.6195 C   0  0  0  0  0  0  0  0  0  0  0  0
    0.5333   15.0318   -3.5367 C   0  0  0  0  0  0  0  0  0  0  0  0
   -3.7858   14.8060    1.4778 N   0  0  0  0  0  0  0  0  0  0  0  0
   -1.3054   14.6469   -1.1109 N   0  0  0  0  0  0  0  0  0  0  0  0
   -6.0290   14.7789   -1.3877 N   0  0  0  0  0  0  0  0  0  0  0  0
   -6.0922   14.8720    1.3341 O   0  0  0  0  0  0  0  0  0  0  0  0
    1.1946   16.1947   -3.6307 F   0  0  0  0  0  0  0  0  0  0  0  0
   -0.7202   15.2063   -3.9801 F   0  0  0  0  0  0  0  0  0  0  0  0
    1.1450   14.1199   -4.3066 F   0  0  0  0  0  0  0  0  0  0  0  0
   -3.5674   14.6721   -2.3869 H   0  0  0  0  0  0  0  0  0  0  0  0
   -1.6933   14.7440    1.5154 H   0  0  0  0  0  0  0  0  0  0  0  0
    0.2642   15.6514   -0.1205 H   0  0  0  0  0  0  0  0  0  0  0  0
   -0.4323   16.5368   -1.5222 H   0  0  0  0  0  0  0  0  0  0  0  0
   -1.1886   13.1701   -2.6298 H   0  0  0  0  0  0  0  0  0  0  0  0
   -0.3879   12.7465   -1.0763 H   0  0  0  0  0  0  0  0  0  0  0  0
    2.3120   13.4022   -2.3447 H   0  0  0  0  0  0  0  0  0  0  0  0
    1.8083   13.5969   -0.6549 H   0  0  0  0  0  0  0  0  0  0  0  0
    2.5553   14.9541   -1.5197 H   0  0  0  0  0  0  0  0  0  0  0  0
   -3.8128   14.8398    2.4926 H   0  0  0  0  0  0  0  0  0  0  0  0
   -5.9944   14.7449   -2.3807 H   0  0  0  0  0  0  0  0  0  0  0  0
   -6.8779   14.8212   -0.8727 H   0  0  0  0  0  0  0  0  0  0  0  0
  1  3  1  0  0  0  0
  1  4  2  0  0  0  0
  2  3  2  0  0  0  0
  2 11  1  0  0  0  0
  3 12  1  0  0  0  0
  4  5  1  0  0  0  0
  4 13  1  0  0  0  0
  5 11  1  0  0  0  0
  5 14  2  0  0  0  0
  6  8  1  0  0  0  0
  6 12  1  0  0  0  0
  7  8  1  0  0  0  0
  7 12  1  0  0  0  0
  8  9  1  0  0  0  0
  8 10  1  0  0  0  0
 10 15  1  0  0  0  0
 10 16  1  0  0  0  0
 10 17  1  0  0  0  0
  1 18  1  0  0  0  0
  2 19  1  0  0  0  0
  6 20  1  0  0  0  0
  6 21  1  0  0  0  0
  7 22  1  0  0  0  0
  7 23  1  0  0  0  0
  9 24  1  0  0  0  0
  9 25  1  0  0  0  0
  9 26  1  0  0  0  0
 11 27  1  0  0  0  0
 13 28  1  0  0  0  0
 13 29  1  0  0  0  0
M  END
> <HYBRID receptor title>
5S18(A) > WOY(A-201)

> <HYBRID receptor filename>
experiments/data/docking/5s18.oedu

> <HYBRID Chemgauss4 score>
-6.916356

> <HYBRID receptor title>
5S18(A) > WOY(A-201)

> <HYBRID receptor filename>
experiments/data/docking/5s18.oedu

> <Dock Type>
Hybrid

$$$$
MOL0212
  -OEChem-07032415493D

 17 17  0     0  0  0  0  0  0999 V2000
   -1.1317   14.6097   -1.0590 C   0  0  0  0  0  0  0  0  0  0  0  0
   -2.4956   14.9372    0.8619 C   0  0  0  0  0  0  0  0  0  0  0  0
   -2.3996   14.7657   -0.5101 C   0  0  0  0  0  0  0  0  0  0  0  0
   -0.0144   14.6295   -0.2317 C   0  0  0  0  0  0  0  0  0  0  0  0
   -0.2168   14.8071    1.1275 C   0  0  0  0  0  0  0  0  0  0  0  0
   -3.6145   14.7477   -1.3676 C   0  0  0  0  0  0  0  0  0  0  0  0
   -1.4328   14.9619    1.6972 N   0  0  0  0  0  0  0  0  0  0  0  0
    1.2738   14.4700   -0.7727 N   0  0  0  0  0  0  0  0  0  0  0  0
    0.8579   14.8323    1.9784 O   0  0  0  0  0  0  0  0  0  0  0  0
   -3.3993   15.2127   -2.6364 F   0  0  0  0  0  0  0  0  0  0  0  0
   -4.6408   15.5124   -0.8836 F   0  0  0  0  0  0  0  0  0  0  0  0
   -1.0169   14.4735   -2.1319 H   0  0  0  0  0  0  0  0  0  0  0  0
   -3.4582   15.0634    1.3477 H   0  0  0  0  0  0  0  0  0  0  0  0
   -3.9977   13.7217   -1.4635 H   0  0  0  0  0  0  0  0  0  0  0  0
    1.3761   14.2890   -1.7527 H   0  0  0  0  0  0  0  0  0  0  0  0
    2.0640   14.4336   -0.1580 H   0  0  0  0  0  0  0  0  0  0  0  0
    0.5277   14.9644    2.8825 H   0  0  0  0  0  0  0  0  0  0  0  0
  1  3  2  0  0  0  0
  1  4  1  0  0  0  0
  2  3  1  0  0  0  0
  2  7  2  0  0  0  0
  3  6  1  0  0  0  0
  4  5  2  0  0  0  0
  4  8  1  0  0  0  0
  5  7  1  0  0  0  0
  5  9  1  0  0  0  0
  6 10  1  0  0  0  0
  6 11  1  0  0  0  0
  1 12  1  0  0  0  0
  2 13  1  0  0  0  0
  6 14  1  0  0  0  0
  8 15  1  0  0  0  0
  8 16  1  0  0  0  0
  9 17  1  0  0  0  0
M  END
> <HYBRID receptor title>
5S18(A) > WOY(A-201)

> <HYBRID receptor filename>
experiments/data/docking/5s18.oedu

> <HYBRID Chemgauss4 score>
-6.915267

> <HYBRID receptor title>
5S18(A) > WOY(A-201)

> <HYBRID receptor filename>
experiments/data/docking/5s18.oedu

> <Dock Type>
Hybrid

$$$$
MOL0013
  -OEChem-07032415493D

 23 23  0     0  0  0  0  0  0999 V2000
   -3.0239   14.5651   -1.1310 C   0  0  0  0  0  0  0  0  0  0  0  0
   -4.4377   14.8680    0.7837 C   0  0  0  0  0  0  0  0  0  0  0  0
   -4.3413   14.6952   -0.5416 C   0  0  0  0  0  0  0  0  0  0  0  0
   -1.8973   14.6108   -0.3991 C   0  0  0  0  0  0  0  0  0  0  0  0
   -2.0265   14.8057    1.0884 C   0  0  0  0  0  0  0  0  0  0  0  0
   -8.0540   14.7774   -1.5637 C   0  0  0  0  0  0  0  0  0  0  0  0
   -5.5253   14.6288   -1.4528 C   0  0  0  0  0  0  0  0  0  0  0  0
   -6.8223   14.7829   -0.6695 C   0  0  0  0  0  0  0  0  0  0  0  0
   -3.3190   14.9217    1.5733 N   0  0  0  0  0  0  0  0  0  0  0  0
   -0.6315   14.4950   -0.8915 N   0  0  0  0  0  0  0  0  0  0  0  0
   -1.0324   14.8558    1.8104 O   0  0  0  0  0  0  0  0  0  0  0  0
   -2.9692   14.4261   -2.2074 H   0  0  0  0  0  0  0  0  0  0  0  0
   -5.3829   14.9736    1.3017 H   0  0  0  0  0  0  0  0  0  0  0  0
   -7.9928   15.5662   -2.3199 H   0  0  0  0  0  0  0  0  0  0  0  0
   -8.1709   13.8174   -2.0761 H   0  0  0  0  0  0  0  0  0  0  0  0
   -8.9549   14.9505   -0.9666 H   0  0  0  0  0  0  0  0  0  0  0  0
   -5.4980   13.6802   -1.9958 H   0  0  0  0  0  0  0  0  0  0  0  0
   -5.4290   15.4475   -2.1727 H   0  0  0  0  0  0  0  0  0  0  0  0
   -6.9150   13.9834    0.0746 H   0  0  0  0  0  0  0  0  0  0  0  0
   -6.7928   15.7327   -0.1223 H   0  0  0  0  0  0  0  0  0  0  0  0
   -3.4449   15.0542    2.5725 H   0  0  0  0  0  0  0  0  0  0  0  0
   -0.5097   14.3652   -1.8728 H   0  0  0  0  0  0  0  0  0  0  0  0
    0.1353   14.5436   -0.2564 H   0  0  0  0  0  0  0  0  0  0  0  0
  1  3  1  0  0  0  0
  1  4  2  0  0  0  0
  2  3  2  0  0  0  0
  2  9  1  0  0  0  0
  3  7  1  0  0  0  0
  4  5  1  0  0  0  0
  4 10  1  0  0  0  0
  5  9  1  0  0  0  0
  5 11  2  0  0  0  0
  6  8  1  0  0  0  0
  7  8  1  0  0  0  0
  1 12  1  0  0  0  0
  2 13  1  0  0  0  0
  6 14  1  0  0  0  0
  6 15  1  0  0  0  0
  6 16  1  0  0  0  0
  7 17  1  0  0  0  0
  7 18  1  0  0  0  0
  8 19  1  0  0  0  0
  8 20  1  0  0  0  0
  9 21  1  0  0  0  0
 10 22  1  0  0  0  0
 10 23  1  0  0  0  0
M  END
> <HYBRID receptor title>
5S18(A) > WOY(A-201)

> <HYBRID receptor filename>
experiments/data/docking/5s18.oedu

> <HYBRID Chemgauss4 score>
-6.914845

> <HYBRID receptor title>
5S18(A) > WOY(A-201)

> <HYBRID receptor filename>
experiments/data/docking/5s18.oedu

> <Dock Type>
Hybrid

$$$$
MOL0260
  -OEChem-07032415493D

 15 15  0     0  0  0  0  0  0999 V2000
   -3.5080   14.4142   -0.9119 C   0  0  0  0  0  0  0  0  0  0  0  0
   -4.7802   14.6159    1.1146 C   0  0  0  0  0  0  0  0  0  0  0  0
   -4.7771   14.4156   -0.2102 C   0  0  0  0  0  0  0  0  0  0  0  0
   -2.3427   14.6074   -0.2712 C   0  0  0  0  0  0  0  0  0  0  0  0
   -2.3570   14.8314    1.2160 C   0  0  0  0  0  0  0  0  0  0  0  0
   -6.0193   14.1917   -1.0126 C   0  0  0  0  0  0  0  0  0  0  0  0
   -3.6121   14.8169    1.8046 N   0  0  0  0  0  0  0  0  0  0  0  0
   -1.3250   15.0141    1.8583 O   0  0  0  0  0  0  0  0  0  0  0  0
   -5.7281   14.0180   -2.3190 F   0  0  0  0  0  0  0  0  0  0  0  0
   -6.6839   13.0959   -0.5897 F   0  0  0  0  0  0  0  0  0  0  0  0
   -6.8575   15.2450   -0.9136 F   0  0  0  0  0  0  0  0  0  0  0  0
   -0.5480   14.6056   -1.2613 I   0  0  0  0  0  0  0  0  0  0  0  0
   -3.5385   14.2495   -1.9856 H   0  0  0  0  0  0  0  0  0  0  0  0
   -5.6846   14.6315    1.7104 H   0  0  0  0  0  0  0  0  0  0  0  0
   -3.6812   14.9632    2.8075 H   0  0  0  0  0  0  0  0  0  0  0  0
  1  3  1  0  0  0  0
  1  4  2  0  0  0  0
  2  3  2  0  0  0  0
  2  7  1  0  0  0  0
  3  6  1  0  0  0  0
  4  5  1  0  0  0  0
  4 12  1  0  0  0  0
  5  7  1  0  0  0  0
  5  8  2  0  0  0  0
  6  9  1  0  0  0  0
  6 10  1  0  0  0  0
  6 11  1  0  0  0  0
  1 13  1  0  0  0  0
  2 14  1  0  0  0  0
  7 15  1  0  0  0  0
M  END
> <HYBRID receptor title>
5S18(A) > WOY(A-201)

> <HYBRID receptor filename>
experiments/data/docking/5s18.oedu

> <HYBRID Chemgauss4 score>
-6.914751

> <HYBRID receptor title>
5S18(A) > WOY(A-201)

> <HYBRID receptor filename>
experiments/data/docking/5s18.oedu

> <Dock Type>
Hybrid

$$$$
MOL0052
  -OEChem-07032415493D

 24 25  0     0  0  0  0  0  0999 V2000
   -2.6414   14.8675   -0.9981 C   0  0  0  0  0  0  0  0  0  0  0  0
   -4.2996   14.9851    0.7320 C   0  0  0  0  0  0  0  0  0  0  0  0
   -4.0263   14.9466   -0.5793 C   0  0  0  0  0  0  0  0  0  0  0  0
   -1.6226   14.8311   -0.1219 C   0  0  0  0  0  0  0  0  0  0  0  0
   -1.9501   14.8756    1.3472 C   0  0  0  0  0  0  0  0  0  0  0  0
   -6.4870   15.0613   -1.2140 C   0  0  0  0  0  0  0  0  0  0  0  0
   -5.9498   13.7758   -1.7645 C   0  0  0  0  0  0  0  0  0  0  0  0
   -5.0445   14.9789   -1.6516 C   0  0  0  0  0  0  0  0  0  0  0  0
   -4.6428   15.6883   -2.9115 C   0  0  0  0  0  0  0  0  0  0  0  0
   -3.2964   14.9509    1.6649 N   0  0  0  0  0  0  0  0  0  0  0  0
   -0.3017   14.7568   -0.4503 N   0  0  0  0  0  0  0  0  0  0  0  0
   -1.0611   14.8459    2.1965 O   0  0  0  0  0  0  0  0  0  0  0  0
   -2.4391   14.8372   -2.0656 H   0  0  0  0  0  0  0  0  0  0  0  0
   -5.3064   15.0446    1.1269 H   0  0  0  0  0  0  0  0  0  0  0  0
   -7.1797   15.6221   -1.8312 H   0  0  0  0  0  0  0  0  0  0  0  0
   -6.7228   15.0946   -0.1563 H   0  0  0  0  0  0  0  0  0  0  0  0
   -5.8244   12.9475   -1.0762 H   0  0  0  0  0  0  0  0  0  0  0  0
   -6.2814   13.4737   -2.7515 H   0  0  0  0  0  0  0  0  0  0  0  0
   -5.4521   15.6666   -3.6531 H   0  0  0  0  0  0  0  0  0  0  0  0
   -3.7597   15.2197   -3.3652 H   0  0  0  0  0  0  0  0  0  0  0  0
   -4.3986   16.7410   -2.7129 H   0  0  0  0  0  0  0  0  0  0  0  0
   -3.5655   14.9832    2.6438 H   0  0  0  0  0  0  0  0  0  0  0  0
   -0.0494   14.7259   -1.4147 H   0  0  0  0  0  0  0  0  0  0  0  0
    0.3733   14.7356    0.2830 H   0  0  0  0  0  0  0  0  0  0  0  0
  1  3  1  0  0  0  0
  1  4  2  0  0  0  0
  2  3  2  0  0  0  0
  2 10  1  0  0  0  0
  3  8  1  0  0  0  0
  4  5  1  0  0  0  0
  4 11  1  0  0  0  0
  5 10  1  0  0  0  0
  5 12  2  0  0  0  0
  6  7  1  0  0  0  0
  6  8  1  0  0  0  0
  7  8  1  0  0  0  0
  8  9  1  0  0  0  0
  1 13  1  0  0  0  0
  2 14  1  0  0  0  0
  6 15  1  0  0  0  0
  6 16  1  0  0  0  0
  7 17  1  0  0  0  0
  7 18  1  0  0  0  0
  9 19  1  0  0  0  0
  9 20  1  0  0  0  0
  9 21  1  0  0  0  0
 10 22  1  0  0  0  0
 11 23  1  0  0  0  0
 11 24  1  0  0  0  0
M  END
> <HYBRID receptor title>
5S18(A) > WOY(A-201)

> <HYBRID receptor filename>
experiments/data/docking/5s18.oedu

> <HYBRID Chemgauss4 score>
-6.911593

> <HYBRID receptor title>
5S18(A) > WOY(A-201)

> <HYBRID receptor filename>
experiments/data/docking/5s18.oedu

> <Dock Type>
Hybrid

$$$$
MOL0196
  -OEChem-07032415493D

 18 18  0     0  0  0  0  0  0999 V2000
   -3.3677   14.6845   -1.1300 C   0  0  0  0  0  0  0  0  0  0  0  0
   -4.7692   15.0243    0.7890 C   0  0  0  0  0  0  0  0  0  0  0  0
   -2.2459   14.6779   -0.3905 C   0  0  0  0  0  0  0  0  0  0  0  0
   -4.6791   14.8619   -0.5385 C   0  0  0  0  0  0  0  0  0  0  0  0
   -2.3621   14.8604    1.0958 C   0  0  0  0  0  0  0  0  0  0  0  0
   -0.8773   14.4980   -0.9652 C   0  0  0  0  0  0  0  0  0  0  0  0
   -5.8645   14.8540   -1.4504 C   0  0  0  0  0  0  0  0  0  0  0  0
   -3.6495   15.0235    1.5807 N   0  0  0  0  0  0  0  0  0  0  0  0
   -1.3653   14.8616    1.8149 O   0  0  0  0  0  0  0  0  0  0  0  0
   -5.4879   14.6735   -2.7339 F   0  0  0  0  0  0  0  0  0  0  0  0
   -6.7219   13.8624   -1.1297 F   0  0  0  0  0  0  0  0  0  0  0  0
   -6.5395   16.0207   -1.3791 F   0  0  0  0  0  0  0  0  0  0  0  0
   -3.3167   14.5550   -2.2072 H   0  0  0  0  0  0  0  0  0  0  0  0
   -5.7098   15.1628    1.3078 H   0  0  0  0  0  0  0  0  0  0  0  0
   -0.4571   15.4690   -1.2244 H   0  0  0  0  0  0  0  0  0  0  0  0
   -0.9313   13.8782   -1.8593 H   0  0  0  0  0  0  0  0  0  0  0  0
   -0.2333   14.0093   -0.2350 H   0  0  0  0  0  0  0  0  0  0  0  0
   -3.7822   15.1509    2.5797 H   0  0  0  0  0  0  0  0  0  0  0  0
  1  3  2  0  0  0  0
  1  4  1  0  0  0  0
  2  4  2  0  0  0  0
  2  8  1  0  0  0  0
  3  5  1  0  0  0  0
  3  6  1  0  0  0  0
  4  7  1  0  0  0  0
  5  8  1  0  0  0  0
  5  9  2  0  0  0  0
  7 10  1  0  0  0  0
  7 11  1  0  0  0  0
  7 12  1  0  0  0  0
  1 13  1  0  0  0  0
  2 14  1  0  0  0  0
  6 15  1  0  0  0  0
  6 16  1  0  0  0  0
  6 17  1  0  0  0  0
  8 18  1  0  0  0  0
M  END
> <HYBRID receptor title>
5S18(A) > WOY(A-201)

> <HYBRID receptor filename>
experiments/data/docking/5s18.oedu

> <HYBRID Chemgauss4 score>
-6.904012

> <HYBRID receptor title>
5S18(A) > WOY(A-201)

> <HYBRID receptor filename>
experiments/data/docking/5s18.oedu

> <Dock Type>
Hybrid

$$$$
MOL0099
  -OEChem-07032415493D

 23 23  0     0  0  0  0  0  0999 V2000
   -2.0983   14.7515   -1.0503 C   0  0  0  0  0  0  0  0  0  0  0  0
   -3.8283   14.8938    0.6061 C   0  0  0  0  0  0  0  0  0  0  0  0
   -3.4998   14.8359   -0.6918 C   0  0  0  0  0  0  0  0  0  0  0  0
   -1.1176   14.7287   -0.1313 C   0  0  0  0  0  0  0  0  0  0  0  0
   -1.5070   14.7948    1.3218 C   0  0  0  0  0  0  0  0  0  0  0  0
   -4.5054   14.8538   -1.7985 C   0  0  0  0  0  0  0  0  0  0  0  0
   -5.9027   14.9814   -1.2204 C   0  0  0  0  0  0  0  0  0  0  0  0
   -4.3425   13.6006   -2.6389 C   0  0  0  0  0  0  0  0  0  0  0  0
   -2.8656   14.8741    1.5810 N   0  0  0  0  0  0  0  0  0  0  0  0
    0.2160   14.6504   -0.4025 N   0  0  0  0  0  0  0  0  0  0  0  0
   -0.6550   14.7779    2.2083 O   0  0  0  0  0  0  0  0  0  0  0  0
   -6.8436   15.0562   -2.1858 F   0  0  0  0  0  0  0  0  0  0  0  0
   -6.1995   13.9218   -0.4347 F   0  0  0  0  0  0  0  0  0  0  0  0
   -6.0104   16.0903   -0.4555 F   0  0  0  0  0  0  0  0  0  0  0  0
   -3.0903   13.4840   -3.1314 F   0  0  0  0  0  0  0  0  0  0  0  0
   -5.1988   13.6030   -3.6844 F   0  0  0  0  0  0  0  0  0  0  0  0
   -4.6018   12.4915   -1.9110 F   0  0  0  0  0  0  0  0  0  0  0  0
   -1.8547   14.7059   -2.1084 H   0  0  0  0  0  0  0  0  0  0  0  0
   -4.8506   14.9584    0.9576 H   0  0  0  0  0  0  0  0  0  0  0  0
   -4.2933   15.7305   -2.4214 H   0  0  0  0  0  0  0  0  0  0  0  0
   -3.1656   14.9202    2.5504 H   0  0  0  0  0  0  0  0  0  0  0  0
    0.5089   14.6055   -1.3547 H   0  0  0  0  0  0  0  0  0  0  0  0
    0.8594   14.6405    0.3589 H   0  0  0  0  0  0  0  0  0  0  0  0
  1  3  1  0  0  0  0
  1  4  2  0  0  0  0
  2  3  2  0  0  0  0
  2  9  1  0  0  0  0
  3  6  1  0  0  0  0
  4  5  1  0  0  0  0
  4 10  1  0  0  0  0
  5  9  1  0  0  0  0
  5 11  2  0  0  0  0
  6  7  1  0  0  0  0
  6  8  1  0  0  0  0
  7 12  1  0  0  0  0
  7 13  1  0  0  0  0
  7 14  1  0  0  0  0
  8 15  1  0  0  0  0
  8 16  1  0  0  0  0
  8 17  1  0  0  0  0
  1 18  1  0  0  0  0
  2 19  1  0  0  0  0
  6 20  1  0  0  0  0
  9 21  1  0  0  0  0
 10 22  1  0  0  0  0
 10 23  1  0  0  0  0
M  END
> <HYBRID receptor title>
5S18(A) > WOY(A-201)

> <HYBRID receptor filename>
experiments/data/docking/5s18.oedu

> <HYBRID Chemgauss4 score>
-6.899082

> <HYBRID receptor title>
5S18(A) > WOY(A-201)

> <HYBRID receptor filename>
experiments/data/docking/5s18.oedu

> <Dock Type>
Hybrid

$$$$
MOL0165
  -OEChem-07032415493D

 23 23  0     0  0  0  0  0  0999 V2000
   -2.5743   14.5794   -1.3593 C   0  0  0  0  0  0  0  0  0  0  0  0
   -3.9846   14.7030   -1.0271 C   0  0  0  0  0  0  0  0  0  0  0  0
   -1.5963   14.6149   -0.4407 C   0  0  0  0  0  0  0  0  0  0  0  0
   -4.3359   14.8540    0.2664 C   0  0  0  0  0  0  0  0  0  0  0  0
   -1.9946   14.7904    0.9940 C   0  0  0  0  0  0  0  0  0  0  0  0
   -5.0999   13.2468   -2.7196 C   0  0  0  0  0  0  0  0  0  0  0  0
   -4.9161   14.6596   -2.2041 C   0  0  0  0  0  0  0  0  0  0  0  0
   -5.7340   14.9773    0.7982 C   0  0  0  0  0  0  0  0  0  0  0  0
   -3.3524   14.8953    1.2362 N   0  0  0  0  0  0  0  0  0  0  0  0
   -0.2628   14.5044   -0.6989 N   0  0  0  0  0  0  0  0  0  0  0  0
   -1.1495   14.8348    1.8865 O   0  0  0  0  0  0  0  0  0  0  0  0
   -6.6349   14.9177   -0.2025 F   0  0  0  0  0  0  0  0  0  0  0  0
   -6.0107   13.9848    1.6667 F   0  0  0  0  0  0  0  0  0  0  0  0
   -5.9016   16.1506    1.4403 F   0  0  0  0  0  0  0  0  0  0  0  0
   -2.3198   14.4520   -2.4087 H   0  0  0  0  0  0  0  0  0  0  0  0
   -5.5062   12.6117   -1.9256 H   0  0  0  0  0  0  0  0  0  0  0  0
   -5.7956   13.2166   -3.5655 H   0  0  0  0  0  0  0  0  0  0  0  0
   -4.1481   12.8132   -3.0452 H   0  0  0  0  0  0  0  0  0  0  0  0
   -4.5113   15.2983   -2.9908 H   0  0  0  0  0  0  0  0  0  0  0  0
   -5.8809   15.0704   -1.8987 H   0  0  0  0  0  0  0  0  0  0  0  0
   -3.6523   15.0116    2.2004 H   0  0  0  0  0  0  0  0  0  0  0  0
    0.0340   14.3864   -1.6438 H   0  0  0  0  0  0  0  0  0  0  0  0
    0.3777   14.5447    0.0642 H   0  0  0  0  0  0  0  0  0  0  0  0
  1  2  1  0  0  0  0
  1  3  2  0  0  0  0
  2  4  2  0  0  0  0
  2  7  1  0  0  0  0
  3  5  1  0  0  0  0
  3 10  1  0  0  0  0
  4  8  1  0  0  0  0
  4  9  1  0  0  0  0
  5  9  1  0  0  0  0
  5 11  2  0  0  0  0
  6  7  1  0  0  0  0
  8 12  1  0  0  0  0
  8 13  1  0  0  0  0
  8 14  1  0  0  0  0
  1 15  1  0  0  0  0
  6 16  1  0  0  0  0
  6 17  1  0  0  0  0
  6 18  1  0  0  0  0
  7 19  1  0  0  0  0
  7 20  1  0  0  0  0
  9 21  1  0  0  0  0
 10 22  1  0  0  0  0
 10 23  1  0  0  0  0
M  END
> <HYBRID receptor title>
5S18(A) > WOY(A-201)

> <HYBRID receptor filename>
experiments/data/docking/5s18.oedu

> <HYBRID Chemgauss4 score>
-6.895504

> <HYBRID receptor title>
5S18(A) > WOY(A-201)

> <HYBRID receptor filename>
experiments/data/docking/5s18.oedu

> <Dock Type>
Hybrid

$$$$
MOL0011
  -OEChem-07032415493D

 26 26  0     0  0  0  0  0  0999 V2000
   -3.2577   14.7009   -1.2019 C   0  0  0  0  0  0  0  0  0  0  0  0
   -4.5761   14.6254    0.8013 C   0  0  0  0  0  0  0  0  0  0  0  0
   -4.5352   14.5463   -0.5358 C   0  0  0  0  0  0  0  0  0  0  0  0
   -2.1143   14.9198   -0.5298 C   0  0  0  0  0  0  0  0  0  0  0  0
   -2.1809   15.0056    0.9720 C   0  0  0  0  0  0  0  0  0  0  0  0
    0.6295   12.8355   -2.3582 C   0  0  0  0  0  0  0  0  0  0  0  0
   -0.5114   13.5895   -3.0264 C   0  0  0  0  0  0  0  0  0  0  0  0
   -0.6514   15.0188   -2.5161 C   0  0  0  0  0  0  0  0  0  0  0  0
   -5.7427   14.3059   -1.3849 C   0  0  0  0  0  0  0  0  0  0  0  0
   -3.4382   14.8475    1.5318 N   0  0  0  0  0  0  0  0  0  0  0  0
   -0.8837   15.0734   -1.0956 N   0  0  0  0  0  0  0  0  0  0  0  0
   -1.1689   15.2042    1.6416 O   0  0  0  0  0  0  0  0  0  0  0  0
   -5.4162   14.2728   -2.6941 F   0  0  0  0  0  0  0  0  0  0  0  0
   -6.3309   13.1308   -1.0775 F   0  0  0  0  0  0  0  0  0  0  0  0
   -6.6589   15.2820   -1.2132 F   0  0  0  0  0  0  0  0  0  0  0  0
   -3.2479   14.6335   -2.2865 H   0  0  0  0  0  0  0  0  0  0  0  0
   -5.4888   14.5212    1.3748 H   0  0  0  0  0  0  0  0  0  0  0  0
    0.4883   12.8242   -1.2728 H   0  0  0  0  0  0  0  0  0  0  0  0
    1.5918   13.3122   -2.5702 H   0  0  0  0  0  0  0  0  0  0  0  0
    0.6768   11.7973   -2.7012 H   0  0  0  0  0  0  0  0  0  0  0  0
   -0.3547   13.5913   -4.1115 H   0  0  0  0  0  0  0  0  0  0  0  0
   -1.4471   13.0515   -2.8348 H   0  0  0  0  0  0  0  0  0  0  0  0
   -1.4773   15.5390   -3.0112 H   0  0  0  0  0  0  0  0  0  0  0  0
    0.2695   15.5777   -2.7111 H   0  0  0  0  0  0  0  0  0  0  0  0
   -3.5215   14.8992    2.5429 H   0  0  0  0  0  0  0  0  0  0  0  0
   -0.1010   15.2355   -0.4840 H   0  0  0  0  0  0  0  0  0  0  0  0
  1  3  1  0  0  0  0
  1  4  2  0  0  0  0
  2  3  2  0  0  0  0
  2 10  1  0  0  0  0
  3  9  1  0  0  0  0
  4  5  1  0  0  0  0
  4 11  1  0  0  0  0
  5 10  1  0  0  0  0
  5 12  2  0  0  0  0
  6  7  1  0  0  0  0
  7  8  1  0  0  0  0
  8 11  1  0  0  0  0
  9 13  1  0  0  0  0
  9 14  1  0  0  0  0
  9 15  1  0  0  0  0
  1 16  1  0  0  0  0
  2 17  1  0  0  0  0
  6 18  1  0  0  0  0
  6 19  1  0  0  0  0
  6 20  1  0  0  0  0
  7 21  1  0  0  0  0
  7 22  1  0  0  0  0
  8 23  1  0  0  0  0
  8 24  1  0  0  0  0
 10 25  1  0  0  0  0
 11 26  1  0  0  0  0
M  END
> <HYBRID receptor title>
5S18(A) > WOY(A-201)

> <HYBRID receptor filename>
experiments/data/docking/5s18.oedu

> <HYBRID Chemgauss4 score>
-6.894665

> <HYBRID receptor title>
5S18(A) > WOY(A-201)

> <HYBRID receptor filename>
experiments/data/docking/5s18.oedu

> <Dock Type>
Hybrid

$$$$
MOL0079
  -OEChem-07032415493D

 24 25  0     0  0  0  0  0  0999 V2000
   -2.8687   15.0708   -0.9273 C   0  0  0  0  0  0  0  0  0  0  0  0
   -4.3338   15.2610    0.9633 C   0  0  0  0  0  0  0  0  0  0  0  0
   -4.1930   15.2569   -0.3693 C   0  0  0  0  0  0  0  0  0  0  0  0
   -1.7784   14.9021   -0.1593 C   0  0  0  0  0  0  0  0  0  0  0  0
   -1.9571   14.9098    1.3358 C   0  0  0  0  0  0  0  0  0  0  0  0
   -7.0208   13.4950   -0.8142 C   0  0  0  0  0  0  0  0  0  0  0  0
   -7.3988   14.0574   -2.1560 C   0  0  0  0  0  0  0  0  0  0  0  0
   -5.9684   14.1089   -1.6957 C   0  0  0  0  0  0  0  0  0  0  0  0
   -5.3341   15.4350   -1.3195 C   0  0  0  0  0  0  0  0  0  0  0  0
   -3.2532   15.0933    1.7892 N   0  0  0  0  0  0  0  0  0  0  0  0
   -0.5085   14.7225   -0.6210 N   0  0  0  0  0  0  0  0  0  0  0  0
   -0.9976   14.7604    2.0901 O   0  0  0  0  0  0  0  0  0  0  0  0
   -2.7777   15.0713   -2.0101 H   0  0  0  0  0  0  0  0  0  0  0  0
   -5.2872   15.3940    1.4594 H   0  0  0  0  0  0  0  0  0  0  0  0
   -7.3404   14.0372    0.0671 H   0  0  0  0  0  0  0  0  0  0  0  0
   -7.0182   12.4177   -0.7018 H   0  0  0  0  0  0  0  0  0  0  0  0
   -7.6499   13.3572   -2.9433 H   0  0  0  0  0  0  0  0  0  0  0  0
   -7.9717   14.9763   -2.1733 H   0  0  0  0  0  0  0  0  0  0  0  0
   -5.2619   13.4415   -2.1742 H   0  0  0  0  0  0  0  0  0  0  0  0
   -4.9703   15.9422   -2.2171 H   0  0  0  0  0  0  0  0  0  0  0  0
   -6.0847   16.0803   -0.8534 H   0  0  0  0  0  0  0  0  0  0  0  0
   -3.4119   15.1041    2.7924 H   0  0  0  0  0  0  0  0  0  0  0  0
   -0.3544   14.7125   -1.6062 H   0  0  0  0  0  0  0  0  0  0  0  0
    0.2290   14.6067    0.0397 H   0  0  0  0  0  0  0  0  0  0  0  0
  1  3  1  0  0  0  0
  1  4  2  0  0  0  0
  2  3  2  0  0  0  0
  2 10  1  0  0  0  0
  3  9  1  0  0  0  0
  4  5  1  0  0  0  0
  4 11  1  0  0  0  0
  5 10  1  0  0  0  0
  5 12  2  0  0  0  0
  6  7  1  0  0  0  0
  6  8  1  0  0  0  0
  7  8  1  0  0  0  0
  8  9  1  0  0  0  0
  1 13  1  0  0  0  0
  2 14  1  0  0  0  0
  6 15  1  0  0  0  0
  6 16  1  0  0  0  0
  7 17  1  0  0  0  0
  7 18  1  0  0  0  0
  8 19  1  0  0  0  0
  9 20  1  0  0  0  0
  9 21  1  0  0  0  0
 10 22  1  0  0  0  0
 11 23  1  0  0  0  0
 11 24  1  0  0  0  0
M  END
> <HYBRID receptor title>
5S18(A) > WOY(A-201)

> <HYBRID receptor filename>
experiments/data/docking/5s18.oedu

> <HYBRID Chemgauss4 score>
-6.887975

> <HYBRID receptor title>
5S18(A) > WOY(A-201)

> <HYBRID receptor filename>
experiments/data/docking/5s18.oedu

> <Dock Type>
Hybrid

$$$$
MOL0154
  -OEChem-07032415493D

 24 24  0     0  0  0  0  0  0999 V2000
   -2.6971   14.7920   -0.9157 C   0  0  0  0  0  0  0  0  0  0  0  0
   -4.3537   15.1064    0.7931 C   0  0  0  0  0  0  0  0  0  0  0  0
   -1.6922   14.6993   -0.0263 C   0  0  0  0  0  0  0  0  0  0  0  0
   -4.0725   15.0013   -0.5126 C   0  0  0  0  0  0  0  0  0  0  0  0
   -2.0259   14.8195    1.4369 C   0  0  0  0  0  0  0  0  0  0  0  0
   -5.0931   13.2994   -4.2751 C   0  0  0  0  0  0  0  0  0  0  0  0
   -4.9060   12.6650   -2.9048 C   0  0  0  0  0  0  0  0  0  0  0  0
   -5.7584   13.3671   -1.8538 C   0  0  0  0  0  0  0  0  0  0  0  0
   -3.3631   15.0181    1.7371 N   0  0  0  0  0  0  0  0  0  0  0  0
   -0.3795   14.5030   -0.3378 N   0  0  0  0  0  0  0  0  0  0  0  0
   -1.1495   14.7430    2.2962 O   0  0  0  0  0  0  0  0  0  0  0  0
   -5.3011   15.1088   -1.7291 S   0  0  0  0  0  0  0  0  0  0  0  0
   -2.4811   14.7083   -1.9779 H   0  0  0  0  0  0  0  0  0  0  0  0
   -5.3510   15.2636    1.1869 H   0  0  0  0  0  0  0  0  0  0  0  0
   -4.8338   14.3624   -4.2538 H   0  0  0  0  0  0  0  0  0  0  0  0
   -4.4656   12.8066   -5.0245 H   0  0  0  0  0  0  0  0  0  0  0  0
   -6.1363   13.2107   -4.5942 H   0  0  0  0  0  0  0  0  0  0  0  0
   -5.1754   11.6039   -2.9688 H   0  0  0  0  0  0  0  0  0  0  0  0
   -3.8445   12.7192   -2.6343 H   0  0  0  0  0  0  0  0  0  0  0  0
   -6.8201   13.3054   -2.1138 H   0  0  0  0  0  0  0  0  0  0  0  0
   -5.6226   12.9022   -0.8725 H   0  0  0  0  0  0  0  0  0  0  0  0
   -3.6362   15.1052    2.7117 H   0  0  0  0  0  0  0  0  0  0  0  0
   -0.1231   14.4188   -1.2978 H   0  0  0  0  0  0  0  0  0  0  0  0
    0.2851   14.4495    0.4031 H   0  0  0  0  0  0  0  0  0  0  0  0
  1  3  2  0  0  0  0
  1  4  1  0  0  0  0
  2  4  2  0  0  0  0
  2  9  1  0  0  0  0
  3  5  1  0  0  0  0
  3 10  1  0  0  0  0
  4 12  1  0  0  0  0
  5  9  1  0  0  0  0
  5 11  2  0  0  0  0
  6  7  1  0  0  0  0
  7  8  1  0  0  0  0
  8 12  1  0  0  0  0
  1 13  1  0  0  0  0
  2 14  1  0  0  0  0
  6 15  1  0  0  0  0
  6 16  1  0  0  0  0
  6 17  1  0  0  0  0
  7 18  1  0  0  0  0
  7 19  1  0  0  0  0
  8 20  1  0  0  0  0
  8 21  1  0  0  0  0
  9 22  1  0  0  0  0
 10 23  1  0  0  0  0
 10 24  1  0  0  0  0
M  END
> <HYBRID receptor title>
5S18(A) > WOY(A-201)

> <HYBRID receptor filename>
experiments/data/docking/5s18.oedu

> <HYBRID Chemgauss4 score>
-6.886512

> <HYBRID receptor title>
5S18(A) > WOY(A-201)

> <HYBRID receptor filename>
experiments/data/docking/5s18.oedu

> <Dock Type>
Hybrid

$$$$
MOL0068
  -OEChem-07032415493D

 27 28  0     0  0  0  0  0  0999 V2000
   -8.7237   13.4413   -0.9436 C   0  0  0  0  0  0  0  0  0  0  0  0
   -8.6673   14.7825   -1.3226 C   0  0  0  0  0  0  0  0  0  0  0  0
   -7.5570   12.6778   -0.9073 C   0  0  0  0  0  0  0  0  0  0  0  0
   -7.4446   15.3602   -1.6649 C   0  0  0  0  0  0  0  0  0  0  0  0
   -6.3343   13.2555   -1.2496 C   0  0  0  0  0  0  0  0  0  0  0  0
   -6.2778   14.5967   -1.6285 C   0  0  0  0  0  0  0  0  0  0  0  0
   -2.5855   15.0169   -1.1737 C   0  0  0  0  0  0  0  0  0  0  0  0
   -4.3634   15.1853    0.4286 C   0  0  0  0  0  0  0  0  0  0  0  0
   -3.9944   15.1426   -0.8589 C   0  0  0  0  0  0  0  0  0  0  0  0
   -1.6370   14.9413   -0.2242 C   0  0  0  0  0  0  0  0  0  0  0  0
   -2.0717   14.9912    1.2167 C   0  0  0  0  0  0  0  0  0  0  0  0
   -4.9617   15.2180   -1.9969 C   0  0  0  0  0  0  0  0  0  0  0  0
   -3.4346   15.1122    1.4335 N   0  0  0  0  0  0  0  0  0  0  0  0
   -0.2987   14.8223   -0.4538 N   0  0  0  0  0  0  0  0  0  0  0  0
   -1.2505   14.9265    2.1296 O   0  0  0  0  0  0  0  0  0  0  0  0
   -9.6756   12.9914   -0.6772 H   0  0  0  0  0  0  0  0  0  0  0  0
   -9.5756   15.3772   -1.3506 H   0  0  0  0  0  0  0  0  0  0  0  0
   -7.6007   11.6334   -0.6124 H   0  0  0  0  0  0  0  0  0  0  0  0
   -7.4106   16.4059   -1.9590 H   0  0  0  0  0  0  0  0  0  0  0  0
   -5.4305   12.6528   -1.2172 H   0  0  0  0  0  0  0  0  0  0  0  0
   -2.3088   14.9845   -2.2241 H   0  0  0  0  0  0  0  0  0  0  0  0
   -5.3940   15.2781    0.7483 H   0  0  0  0  0  0  0  0  0  0  0  0
   -5.0942   16.2691   -2.2673 H   0  0  0  0  0  0  0  0  0  0  0  0
   -4.5218   14.7067   -2.8577 H   0  0  0  0  0  0  0  0  0  0  0  0
   -3.7647   15.1489    2.3934 H   0  0  0  0  0  0  0  0  0  0  0  0
    0.0238   14.7867   -1.3968 H   0  0  0  0  0  0  0  0  0  0  0  0
    0.3186   14.7745    0.3276 H   0  0  0  0  0  0  0  0  0  0  0  0
  1  2  1  0  0  0  0
  1  3  2  0  0  0  0
  2  4  2  0  0  0  0
  3  5  1  0  0  0  0
  4  6  1  0  0  0  0
  5  6  2  0  0  0  0
  6 12  1  0  0  0  0
  7  9  1  0  0  0  0
  7 10  2  0  0  0  0
  8  9  2  0  0  0  0
  8 13  1  0  0  0  0
  9 12  1  0  0  0  0
 10 11  1  0  0  0  0
 10 14  1  0  0  0  0
 11 13  1  0  0  0  0
 11 15  2  0  0  0  0
  1 16  1  0  0  0  0
  2 17  1  0  0  0  0
  3 18  1  0  0  0  0
  4 19  1  0  0  0  0
  5 20  1  0  0  0  0
  7 21  1  0  0  0  0
  8 22  1  0  0  0  0
 12 23  1  0  0  0  0
 12 24  1  0  0  0  0
 13 25  1  0  0  0  0
 14 26  1  0  0  0  0
 14 27  1  0  0  0  0
M  END
> <HYBRID receptor title>
5S18(A) > WOY(A-201)

> <HYBRID receptor filename>
experiments/data/docking/5s18.oedu

> <HYBRID Chemgauss4 score>
-6.885932

> <HYBRID receptor title>
5S18(A) > WOY(A-201)

> <HYBRID receptor filename>
experiments/data/docking/5s18.oedu

> <Dock Type>
Hybrid

$$$$
MOL0199
  -OEChem-07032415493D

 32 33  0     1  0  0  0  0  0999 V2000
   -4.5307   14.2219   -0.9472 C   0  0  0  0  0  0  0  0  0  0  0  0
   -3.2540   15.1102    0.9225 C   0  0  0  0  0  0  0  0  0  0  0  0
   -3.3139   14.6907   -0.3450 C   0  0  0  0  0  0  0  0  0  0  0  0
   -5.6305   14.2171   -0.1856 C   0  0  0  0  0  0  0  0  0  0  0  0
   -5.6367   14.6708    1.2316 C   0  0  0  0  0  0  0  0  0  0  0  0
   -0.8666   14.5056   -0.6350 C   0  0  0  0  0  0  0  0  0  0  0  0
   -2.2523   14.8615   -2.5709 C   0  0  0  0  0  0  0  0  0  0  0  0
   -0.0221   14.2873   -1.8924 C   0  0  1  0  0  0  0  0  0  0  0  0
   -0.7914   15.0895   -2.9608 C   0  0  1  0  0  0  0  0  0  0  0  0
    1.3948   14.7356   -1.7133 C   0  0  0  0  0  0  0  0  0  0  0  0
   -0.4939   14.6504   -4.3864 C   0  0  0  0  0  0  0  0  0  0  0  0
   -4.3948   15.1003    1.6966 N   0  0  0  0  0  0  0  0  0  0  0  0
   -2.2181   14.6871   -1.1310 N   0  0  3  0  0  0  0  0  0  0  0  0
   -6.8449   13.7914   -0.6545 N   0  0  0  0  0  0  0  0  0  0  0  0
   -6.6538   14.6620    1.9197 O   0  0  0  0  0  0  0  0  0  0  0  0
    0.8028   14.8524   -4.6760 F   0  0  0  0  0  0  0  0  0  0  0  0
   -1.2419   15.3507   -5.2560 F   0  0  0  0  0  0  0  0  0  0  0  0
   -0.7687   13.3438   -4.5390 F   0  0  0  0  0  0  0  0  0  0  0  0
   -4.5415   13.8882   -1.9791 H   0  0  0  0  0  0  0  0  0  0  0  0
   -2.3543   15.4689    1.4067 H   0  0  0  0  0  0  0  0  0  0  0  0
   -0.7903   13.6449    0.0389 H   0  0  0  0  0  0  0  0  0  0  0  0
   -0.5512   15.4027   -0.0895 H   0  0  0  0  0  0  0  0  0  0  0  0
   -2.8721   15.7159   -2.8659 H   0  0  0  0  0  0  0  0  0  0  0  0
   -2.6585   13.9582   -3.0414 H   0  0  0  0  0  0  0  0  0  0  0  0
   -0.0414   13.2220   -2.1485 H   0  0  0  0  0  0  0  0  0  0  0  0
   -0.5599   16.1560   -2.8606 H   0  0  0  0  0  0  0  0  0  0  0  0
    1.4244   15.7959   -1.4578 H   0  0  0  0  0  0  0  0  0  0  0  0
    1.9577   14.5805   -2.6349 H   0  0  0  0  0  0  0  0  0  0  0  0
    1.8710   14.1679   -0.9115 H   0  0  0  0  0  0  0  0  0  0  0  0
   -4.3267   15.4234    2.6572 H   0  0  0  0  0  0  0  0  0  0  0  0
   -6.9035   13.4761   -1.5956 H   0  0  0  0  0  0  0  0  0  0  0  0
   -7.6234   13.8131   -0.0371 H   0  0  0  0  0  0  0  0  0  0  0  0
  1  3  1  0  0  0  0
  1  4  2  0  0  0  0
  2  3  2  0  0  0  0
  2 12  1  0  0  0  0
  3 13  1  0  0  0  0
  4  5  1  0  0  0  0
  4 14  1  0  0  0  0
  5 12  1  0  0  0  0
  5 15  2  0  0  0  0
  6  8  1  0  0  0  0
  6 13  1  0  0  0  0
  7  9  1  0  0  0  0
  7 13  1  0  0  0  0
  8  9  1  0  0  0  0
  8 10  1  0  0  0  0
  9 11  1  0  0  0  0
 11 16  1  0  0  0  0
 11 17  1  0  0  0  0
 11 18  1  0  0  0  0
  1 19  1  0  0  0  0
  2 20  1  0  0  0  0
  6 21  1  0  0  0  0
  6 22  1  0  0  0  0
  7 23  1  0  0  0  0
  7 24  1  0  0  0  0
  8 25  1  0  0  0  0
  9 26  1  0  0  0  0
 10 27  1  0  0  0  0
 10 28  1  0  0  0  0
 10 29  1  0  0  0  0
 12 30  1  0  0  0  0
 14 31  1  0  0  0  0
 14 32  1  0  0  0  0
M  END
> <HYBRID receptor title>
5S18(A) > WOY(A-201)

> <HYBRID receptor filename>
experiments/data/docking/5s18.oedu

> <HYBRID Chemgauss4 score>
-6.885581

> <HYBRID receptor title>
5S18(A) > WOY(A-201)

> <HYBRID receptor filename>
experiments/data/docking/5s18.oedu

> <Dock Type>
Hybrid

$$$$
MOL0301
  -OEChem-07032415493D

 27 27  0     0  0  0  0  0  0999 V2000
   -3.2032   14.9506   -1.1494 C   0  0  0  0  0  0  0  0  0  0  0  0
   -4.6348   15.3706    0.7297 C   0  0  0  0  0  0  0  0  0  0  0  0
   -4.5103   15.2476   -0.5989 C   0  0  0  0  0  0  0  0  0  0  0  0
   -2.1132   14.7938   -0.3785 C   0  0  0  0  0  0  0  0  0  0  0  0
   -2.2735   14.9360    1.1119 C   0  0  0  0  0  0  0  0  0  0  0  0
   -8.2242   13.1759    0.7336 C   0  0  0  0  0  0  0  0  0  0  0  0
   -7.7957   12.9045   -1.7335 C   0  0  0  0  0  0  0  0  0  0  0  0
   -5.6527   15.4008   -1.5518 C   0  0  0  0  0  0  0  0  0  0  0  0
   -7.3006   13.5192   -0.4294 C   0  0  0  0  0  0  0  0  0  0  0  0
   -3.5538   15.2202    1.5583 N   0  0  0  0  0  0  0  0  0  0  0  0
   -0.8590   14.5142   -0.8332 N   0  0  0  0  0  0  0  0  0  0  0  0
   -1.3134   14.8037    1.8687 O   0  0  0  0  0  0  0  0  0  0  0  0
   -7.1851   15.3159   -0.6074 S   0  0  0  0  0  0  0  0  0  0  0  0
   -3.1252   14.8555   -2.2291 H   0  0  0  0  0  0  0  0  0  0  0  0
   -5.5747   15.5913    1.2202 H   0  0  0  0  0  0  0  0  0  0  0  0
   -9.2431   13.5374    0.5544 H   0  0  0  0  0  0  0  0  0  0  0  0
   -7.8678   13.6491    1.6553 H   0  0  0  0  0  0  0  0  0  0  0  0
   -8.2691   12.0956    0.9143 H   0  0  0  0  0  0  0  0  0  0  0  0
   -8.8018   13.2689   -1.9680 H   0  0  0  0  0  0  0  0  0  0  0  0
   -7.1472   13.1619   -2.5785 H   0  0  0  0  0  0  0  0  0  0  0  0
   -7.8532   11.8120   -1.6635 H   0  0  0  0  0  0  0  0  0  0  0  0
   -5.6142   14.5948   -2.2836 H   0  0  0  0  0  0  0  0  0  0  0  0
   -5.5701   16.3671   -2.0479 H   0  0  0  0  0  0  0  0  0  0  0  0
   -6.2951   13.1427   -0.2135 H   0  0  0  0  0  0  0  0  0  0  0  0
   -3.6998   15.3230    2.5583 H   0  0  0  0  0  0  0  0  0  0  0  0
   -0.7173   14.4138   -1.8153 H   0  0  0  0  0  0  0  0  0  0  0  0
   -0.1201   14.4183   -0.1709 H   0  0  0  0  0  0  0  0  0  0  0  0
  1  3  1  0  0  0  0
  1  4  2  0  0  0  0
  2  3  2  0  0  0  0
  2 10  1  0  0  0  0
  3  8  1  0  0  0  0
  4  5  1  0  0  0  0
  4 11  1  0  0  0  0
  5 10  1  0  0  0  0
  5 12  2  0  0  0  0
  6  9  1  0  0  0  0
  7  9  1  0  0  0  0
  8 13  1  0  0  0  0
  9 13  1  0  0  0  0
  1 14  1  0  0  0  0
  2 15  1  0  0  0  0
  6 16  1  0  0  0  0
  6 17  1  0  0  0  0
  6 18  1  0  0  0  0
  7 19  1  0  0  0  0
  7 20  1  0  0  0  0
  7 21  1  0  0  0  0
  8 22  1  0  0  0  0
  8 23  1  0  0  0  0
  9 24  1  0  0  0  0
 10 25  1  0  0  0  0
 11 26  1  0  0  0  0
 11 27  1  0  0  0  0
M  END
> <HYBRID receptor title>
5S18(A) > WOY(A-201)

> <HYBRID receptor filename>
experiments/data/docking/5s18.oedu

> <HYBRID Chemgauss4 score>
-6.884857

> <HYBRID receptor title>
5S18(A) > WOY(A-201)

> <HYBRID receptor filename>
experiments/data/docking/5s18.oedu

> <Dock Type>
Hybrid

$$$$
MOL0303
  -OEChem-07032415493D

 29 29  0     0  0  0  0  0  0999 V2000
   -2.9678   14.7457   -1.0884 C   0  0  0  0  0  0  0  0  0  0  0  0
   -2.3545   15.0965    1.2111 C   0  0  0  0  0  0  0  0  0  0  0  0
   -1.9740   14.9199   -0.0583 C   0  0  0  0  0  0  0  0  0  0  0  0
   -4.2845   14.7539   -0.8150 C   0  0  0  0  0  0  0  0  0  0  0  0
   -4.7098   14.9527    0.6182 C   0  0  0  0  0  0  0  0  0  0  0  0
   -0.5437   14.9098   -0.3646 C   0  0  0  0  0  0  0  0  0  0  0  0
    1.2513   16.3979   -3.8424 C   0  0  0  0  0  0  0  0  0  0  0  0
   -0.9753   15.4408   -4.4967 C   0  0  0  0  0  0  0  0  0  0  0  0
    0.2623   14.4711   -2.5375 C   0  0  0  0  0  0  0  0  0  0  0  0
    0.4015   15.1273   -3.9143 C   0  0  0  0  0  0  0  0  0  0  0  0
   -3.6859   15.1122    1.5396 N   0  0  0  0  0  0  0  0  0  0  0  0
   -5.2816   14.5962   -1.7309 N   0  0  0  0  0  0  0  0  0  0  0  0
   -5.8994   14.9692    0.9293 O   0  0  0  0  0  0  0  0  0  0  0  0
    0.3146   14.5309    0.4180 O   0  0  0  0  0  0  0  0  0  0  0  0
   -0.3642   15.3800   -1.6256 O   0  0  0  0  0  0  0  0  0  0  0  0
   -2.6209   14.6050   -2.1081 H   0  0  0  0  0  0  0  0  0  0  0  0
   -1.6674   15.2339    2.0372 H   0  0  0  0  0  0  0  0  0  0  0  0
    0.7930   17.1452   -3.1856 H   0  0  0  0  0  0  0  0  0  0  0  0
    2.2548   16.1820   -3.4625 H   0  0  0  0  0  0  0  0  0  0  0  0
    1.3635   16.8444   -4.8356 H   0  0  0  0  0  0  0  0  0  0  0  0
   -1.5199   16.1398   -3.8532 H   0  0  0  0  0  0  0  0  0  0  0  0
   -0.8835   15.9006   -5.4861 H   0  0  0  0  0  0  0  0  0  0  0  0
   -1.5799   14.5327   -4.5987 H   0  0  0  0  0  0  0  0  0  0  0  0
   -0.3439   13.5606   -2.5939 H   0  0  0  0  0  0  0  0  0  0  0  0
    1.2467   14.2113   -2.1341 H   0  0  0  0  0  0  0  0  0  0  0  0
    0.9153   14.4267   -4.5841 H   0  0  0  0  0  0  0  0  0  0  0  0
   -3.9259   15.2491    2.5172 H   0  0  0  0  0  0  0  0  0  0  0  0
   -5.0355   14.4623   -2.6880 H   0  0  0  0  0  0  0  0  0  0  0  0
   -6.2276   14.6191   -1.4172 H   0  0  0  0  0  0  0  0  0  0  0  0
  1  3  1  0  0  0  0
  1  4  2  0  0  0  0
  2  3  2  0  0  0  0
  2 11  1  0  0  0  0
  3  6  1  0  0  0  0
  4  5  1  0  0  0  0
  4 12  1  0  0  0  0
  5 11  1  0  0  0  0
  5 13  2  0  0  0  0
  6 14  2  0  0  0  0
  6 15  1  0  0  0  0
  7 10  1  0  0  0  0
  8 10  1  0  0  0  0
  9 10  1  0  0  0  0
  9 15  1  0  0  0  0
  1 16  1  0  0  0  0
  2 17  1  0  0  0  0
  7 18  1  0  0  0  0
  7 19  1  0  0  0  0
  7 20  1  0  0  0  0
  8 21  1  0  0  0  0
  8 22  1  0  0  0  0
  8 23  1  0  0  0  0
  9 24  1  0  0  0  0
  9 25  1  0  0  0  0
 10 26  1  0  0  0  0
 11 27  1  0  0  0  0
 12 28  1  0  0  0  0
 12 29  1  0  0  0  0
M  END
> <HYBRID receptor title>
5S18(A) > WOY(A-201)

> <HYBRID receptor filename>
experiments/data/docking/5s18.oedu

> <HYBRID Chemgauss4 score>
-6.880457

> <HYBRID receptor title>
5S18(A) > WOY(A-201)

> <HYBRID receptor filename>
experiments/data/docking/5s18.oedu

> <Dock Type>
Hybrid

$$$$
MOL0007
  -OEChem-07032415493D

 20 20  0     0  0  0  0  0  0999 V2000
   -3.4886   14.7355   -1.2895 C   0  0  0  0  0  0  0  0  0  0  0  0
   -4.7559   14.8092    0.7466 C   0  0  0  0  0  0  0  0  0  0  0  0
   -4.7533   14.6647   -0.5857 C   0  0  0  0  0  0  0  0  0  0  0  0
   -2.3203   14.9399   -0.6569 C   0  0  0  0  0  0  0  0  0  0  0  0
   -2.3440   15.1000    0.8402 C   0  0  0  0  0  0  0  0  0  0  0  0
    0.1270   14.6167   -0.6193 C   0  0  0  0  0  0  0  0  0  0  0  0
   -5.9911   14.4330   -1.3923 C   0  0  0  0  0  0  0  0  0  0  0  0
   -3.5914   15.0199    1.4374 N   0  0  0  0  0  0  0  0  0  0  0  0
   -1.0999   15.0164   -1.2593 N   0  0  0  0  0  0  0  0  0  0  0  0
   -1.3076   15.2894    1.4744 O   0  0  0  0  0  0  0  0  0  0  0  0
   -5.7007   14.3241   -2.7059 F   0  0  0  0  0  0  0  0  0  0  0  0
   -6.6167   13.2987   -1.0137 F   0  0  0  0  0  0  0  0  0  0  0  0
   -6.8636   15.4525   -1.2463 F   0  0  0  0  0  0  0  0  0  0  0  0
   -3.5099   14.6159   -2.3693 H   0  0  0  0  0  0  0  0  0  0  0  0
   -5.6566   14.7697    1.3465 H   0  0  0  0  0  0  0  0  0  0  0  0
   -0.0679   14.2564    0.3949 H   0  0  0  0  0  0  0  0  0  0  0  0
    0.6075   13.8167   -1.1896 H   0  0  0  0  0  0  0  0  0  0  0  0
    0.8175   15.4629   -0.5646 H   0  0  0  0  0  0  0  0  0  0  0  0
   -3.6460   15.1232    2.4465 H   0  0  0  0  0  0  0  0  0  0  0  0
   -1.0608   15.3690   -2.2012 H   0  0  0  0  0  0  0  0  0  0  0  0
  1  3  1  0  0  0  0
  1  4  2  0  0  0  0
  2  3  2  0  0  0  0
  2  8  1  0  0  0  0
  3  7  1  0  0  0  0
  4  5  1  0  0  0  0
  4  9  1  0  0  0  0
  5  8  1  0  0  0  0
  5 10  2  0  0  0  0
  6  9  1  0  0  0  0
  7 11  1  0  0  0  0
  7 12  1  0  0  0  0
  7 13  1  0  0  0  0
  1 14  1  0  0  0  0
  2 15  1  0  0  0  0
  6 16  1  0  0  0  0
  6 17  1  0  0  0  0
  6 18  1  0  0  0  0
  8 19  1  0  0  0  0
  9 20  1  0  0  0  0
M  END
> <HYBRID receptor title>
5S18(A) > WOY(A-201)

> <HYBRID receptor filename>
experiments/data/docking/5s18.oedu

> <HYBRID Chemgauss4 score>
-6.880239

> <HYBRID receptor title>
5S18(A) > WOY(A-201)

> <HYBRID receptor filename>
experiments/data/docking/5s18.oedu

> <Dock Type>
Hybrid

$$$$
MOL0019
  -OEChem-07032415493D

 26 26  0     0  0  0  0  0  0999 V2000
   -3.0430   14.5401   -1.1290 C   0  0  0  0  0  0  0  0  0  0  0  0
   -4.5006   14.9249    0.7376 C   0  0  0  0  0  0  0  0  0  0  0  0
   -4.3744   14.6632   -0.5706 C   0  0  0  0  0  0  0  0  0  0  0  0
   -1.9320   14.6779   -0.3850 C   0  0  0  0  0  0  0  0  0  0  0  0
   -2.0945   14.9719    1.0829 C   0  0  0  0  0  0  0  0  0  0  0  0
    1.0860   14.7604   -2.5430 C   0  0  0  0  0  0  0  0  0  0  0  0
   -0.5046   12.8130   -2.5208 C   0  0  0  0  0  0  0  0  0  0  0  0
   -0.3296   14.2971   -2.2241 C   0  0  0  0  0  0  0  0  0  0  0  0
   -5.5389   14.4901   -1.4929 C   0  0  0  0  0  0  0  0  0  0  0  0
   -3.3988   15.0744    1.5384 N   0  0  0  0  0  0  0  0  0  0  0  0
   -0.6543   14.5741   -0.8484 N   0  0  0  0  0  0  0  0  0  0  0  0
   -1.1158   15.1085    1.8147 O   0  0  0  0  0  0  0  0  0  0  0  0
   -5.1263   14.2357   -2.7526 F   0  0  0  0  0  0  0  0  0  0  0  0
   -6.3244   13.4647   -1.1021 F   0  0  0  0  0  0  0  0  0  0  0  0
   -6.3016   15.6033   -1.5260 F   0  0  0  0  0  0  0  0  0  0  0  0
   -2.9641   14.3281   -2.1919 H   0  0  0  0  0  0  0  0  0  0  0  0
   -5.4580   15.0320    1.2322 H   0  0  0  0  0  0  0  0  0  0  0  0
    1.8198   14.2042   -1.9498 H   0  0  0  0  0  0  0  0  0  0  0  0
    1.2092   15.8261   -2.3212 H   0  0  0  0  0  0  0  0  0  0  0  0
    1.3288   14.6013   -3.5992 H   0  0  0  0  0  0  0  0  0  0  0  0
    0.1892   12.2051   -1.9292 H   0  0  0  0  0  0  0  0  0  0  0  0
   -0.3274   12.6022   -3.5800 H   0  0  0  0  0  0  0  0  0  0  0  0
   -1.5209   12.4849   -2.2747 H   0  0  0  0  0  0  0  0  0  0  0  0
   -1.0379   14.8712   -2.8322 H   0  0  0  0  0  0  0  0  0  0  0  0
   -3.5470   15.2720    2.5238 H   0  0  0  0  0  0  0  0  0  0  0  0
    0.0971   14.7009   -0.1908 H   0  0  0  0  0  0  0  0  0  0  0  0
  1  3  1  0  0  0  0
  1  4  2  0  0  0  0
  2  3  2  0  0  0  0
  2 10  1  0  0  0  0
  3  9  1  0  0  0  0
  4  5  1  0  0  0  0
  4 11  1  0  0  0  0
  5 10  1  0  0  0  0
  5 12  2  0  0  0  0
  6  8  1  0  0  0  0
  7  8  1  0  0  0  0
  8 11  1  0  0  0  0
  9 13  1  0  0  0  0
  9 14  1  0  0  0  0
  9 15  1  0  0  0  0
  1 16  1  0  0  0  0
  2 17  1  0  0  0  0
  6 18  1  0  0  0  0
  6 19  1  0  0  0  0
  6 20  1  0  0  0  0
  7 21  1  0  0  0  0
  7 22  1  0  0  0  0
  7 23  1  0  0  0  0
  8 24  1  0  0  0  0
 10 25  1  0  0  0  0
 11 26  1  0  0  0  0
M  END
> <HYBRID receptor title>
5S18(A) > WOY(A-201)

> <HYBRID receptor filename>
experiments/data/docking/5s18.oedu

> <HYBRID Chemgauss4 score>
-6.874557

> <HYBRID receptor title>
5S18(A) > WOY(A-201)

> <HYBRID receptor filename>
experiments/data/docking/5s18.oedu

> <Dock Type>
Hybrid

$$$$
MOL0028
  -OEChem-07032415493D

 26 26  0     0  0  0  0  0  0999 V2000
   -2.2106   14.9261   -1.1938 C   0  0  0  0  0  0  0  0  0  0  0  0
   -4.0466   15.1324    0.3369 C   0  0  0  0  0  0  0  0  0  0  0  0
   -3.6269   15.0901   -0.9350 C   0  0  0  0  0  0  0  0  0  0  0  0
   -1.3041   14.8145   -0.2075 C   0  0  0  0  0  0  0  0  0  0  0  0
   -1.7955   14.8645    1.2150 C   0  0  0  0  0  0  0  0  0  0  0  0
   -5.9822   13.9638   -3.7498 C   0  0  0  0  0  0  0  0  0  0  0  0
   -3.8875   12.8881   -2.8985 C   0  0  0  0  0  0  0  0  0  0  0  0
   -4.5446   15.2037   -2.1104 C   0  0  0  0  0  0  0  0  0  0  0  0
   -5.0466   13.8237   -2.5481 C   0  0  0  0  0  0  0  0  0  0  0  0
   -3.1620   15.0234    1.3777 N   0  0  0  0  0  0  0  0  0  0  0  0
    0.0385   14.6584   -0.3840 N   0  0  0  0  0  0  0  0  0  0  0  0
   -1.0143   14.7678    2.1597 O   0  0  0  0  0  0  0  0  0  0  0  0
   -1.8924   14.8948   -2.2324 H   0  0  0  0  0  0  0  0  0  0  0  0
   -5.0863   15.2525    0.6156 H   0  0  0  0  0  0  0  0  0  0  0  0
   -5.4597   14.4162   -4.5995 H   0  0  0  0  0  0  0  0  0  0  0  0
   -6.3684   12.9892   -4.0687 H   0  0  0  0  0  0  0  0  0  0  0  0
   -6.8368   14.6038   -3.5053 H   0  0  0  0  0  0  0  0  0  0  0  0
   -3.2835   13.2930   -3.7173 H   0  0  0  0  0  0  0  0  0  0  0  0
   -4.2510   11.9000   -3.2018 H   0  0  0  0  0  0  0  0  0  0  0  0
   -3.2246   12.7528   -2.0375 H   0  0  0  0  0  0  0  0  0  0  0  0
   -5.3842   15.8350   -1.7994 H   0  0  0  0  0  0  0  0  0  0  0  0
   -4.0115   15.7105   -2.9208 H   0  0  0  0  0  0  0  0  0  0  0  0
   -5.6135   13.3675   -1.7255 H   0  0  0  0  0  0  0  0  0  0  0  0
   -3.5297   15.0613    2.3239 H   0  0  0  0  0  0  0  0  0  0  0  0
    0.3979   14.6217   -1.3136 H   0  0  0  0  0  0  0  0  0  0  0  0
    0.6218   14.5858    0.4212 H   0  0  0  0  0  0  0  0  0  0  0  0
  1  3  1  0  0  0  0
  1  4  2  0  0  0  0
  2  3  2  0  0  0  0
  2 10  1  0  0  0  0
  3  8  1  0  0  0  0
  4  5  1  0  0  0  0
  4 11  1  0  0  0  0
  5 10  1  0  0  0  0
  5 12  2  0  0  0  0
  6  9  1  0  0  0  0
  7  9  1  0  0  0  0
  8  9  1  0  0  0  0
  1 13  1  0  0  0  0
  2 14  1  0  0  0  0
  6 15  1  0  0  0  0
  6 16  1  0  0  0  0
  6 17  1  0  0  0  0
  7 18  1  0  0  0  0
  7 19  1  0  0  0  0
  7 20  1  0  0  0  0
  8 21  1  0  0  0  0
  8 22  1  0  0  0  0
  9 23  1  0  0  0  0
 10 24  1  0  0  0  0
 11 25  1  0  0  0  0
 11 26  1  0  0  0  0
M  END
> <HYBRID receptor title>
5S18(A) > WOY(A-201)

> <HYBRID receptor filename>
experiments/data/docking/5s18.oedu

> <HYBRID Chemgauss4 score>
-6.872183

> <HYBRID receptor title>
5S18(A) > WOY(A-201)

> <HYBRID receptor filename>
experiments/data/docking/5s18.oedu

> <Dock Type>
Hybrid

$$$$
MOL0216
  -OEChem-07032415493D

 22 22  0     0  0  0  0  0  0999 V2000
   -3.1345   14.4979   -1.5300 C   0  0  0  0  0  0  0  0  0  0  0  0
   -2.2581   14.5798   -2.3467 C   0  0  0  0  0  0  0  0  0  0  0  0
   -5.4668   13.8855   -0.9489 C   0  0  0  0  0  0  0  0  0  0  0  0
   -3.9728   14.7785    0.7048 C   0  0  0  0  0  0  0  0  0  0  0  0
   -4.1711   14.4002   -0.5639 C   0  0  0  0  0  0  0  0  0  0  0  0
   -6.4840   13.7727   -0.0764 C   0  0  0  0  0  0  0  0  0  0  0  0
   -6.2468   14.2020    1.3480 C   0  0  0  0  0  0  0  0  0  0  0  0
   -1.1860   14.6822   -3.3442 C   0  0  0  0  0  0  0  0  0  0  0  0
   -0.9824   13.3756   -4.0780 C   0  0  0  0  0  0  0  0  0  0  0  0
   -4.9786   14.6824    1.6320 N   0  0  0  0  0  0  0  0  0  0  0  0
   -7.7274   13.2978   -0.3714 N   0  0  0  0  0  0  0  0  0  0  0  0
   -7.1384   14.1228    2.1914 O   0  0  0  0  0  0  0  0  0  0  0  0
   -0.6173   12.4025   -3.2130 F   0  0  0  0  0  0  0  0  0  0  0  0
   -0.0112   13.4758   -5.0106 F   0  0  0  0  0  0  0  0  0  0  0  0
   -2.1142   12.9695   -4.6923 F   0  0  0  0  0  0  0  0  0  0  0  0
   -5.6050   13.5844   -1.9844 H   0  0  0  0  0  0  0  0  0  0  0  0
   -3.0340   15.1740    1.0745 H   0  0  0  0  0  0  0  0  0  0  0  0
   -0.2509   14.9722   -2.8527 H   0  0  0  0  0  0  0  0  0  0  0  0
   -1.4274   15.4702   -4.0660 H   0  0  0  0  0  0  0  0  0  0  0  0
   -4.7824   14.9809    2.5829 H   0  0  0  0  0  0  0  0  0  0  0  0
   -7.9185   13.0048   -1.3053 H   0  0  0  0  0  0  0  0  0  0  0  0
   -8.4088   13.2573    0.3550 H   0  0  0  0  0  0  0  0  0  0  0  0
  1  2  3  0  0  0  0
  1  5  1  0  0  0  0
  2  8  1  0  0  0  0
  3  5  1  0  0  0  0
  3  6  2  0  0  0  0
  4  5  2  0  0  0  0
  4 10  1  0  0  0  0
  6  7  1  0  0  0  0
  6 11  1  0  0  0  0
  7 10  1  0  0  0  0
  7 12  2  0  0  0  0
  8  9  1  0  0  0  0
  9 13  1  0  0  0  0
  9 14  1  0  0  0  0
  9 15  1  0  0  0  0
  3 16  1  0  0  0  0
  4 17  1  0  0  0  0
  8 18  1  0  0  0  0
  8 19  1  0  0  0  0
 10 20  1  0  0  0  0
 11 21  1  0  0  0  0
 11 22  1  0  0  0  0
M  END
> <HYBRID receptor title>
5S18(A) > WOY(A-201)

> <HYBRID receptor filename>
experiments/data/docking/5s18.oedu

> <HYBRID Chemgauss4 score>
-6.869706

> <HYBRID receptor title>
5S18(A) > WOY(A-201)

> <HYBRID receptor filename>
experiments/data/docking/5s18.oedu

> <Dock Type>
Hybrid

$$$$
MOL0275
  -OEChem-07032415493D

 29 29  0     0  0  0  0  0  0999 V2000
   -1.2161   14.6169   -1.0520 C   0  0  0  0  0  0  0  0  0  0  0  0
   -2.6470   14.8286   -0.9026 C   0  0  0  0  0  0  0  0  0  0  0  0
   -0.3724   14.5316   -0.0116 C   0  0  0  0  0  0  0  0  0  0  0  0
   -3.1605   14.9387    0.3398 C   0  0  0  0  0  0  0  0  0  0  0  0
   -0.9501   14.6622    1.3658 C   0  0  0  0  0  0  0  0  0  0  0  0
   -2.4352   14.7517   -3.3684 C   0  0  0  0  0  0  0  0  0  0  0  0
   -4.4696   13.8037   -2.2454 C   0  0  0  0  0  0  0  0  0  0  0  0
   -4.1074   16.2813   -2.2920 C   0  0  0  0  0  0  0  0  0  0  0  0
   -3.4099   14.9160   -2.1930 C   0  0  0  0  0  0  0  0  0  0  0  0
   -4.6066   15.1389    0.6883 C   0  0  0  0  0  0  0  0  0  0  0  0
   -2.3181   14.8560    1.4320 N   0  0  0  0  0  0  0  0  0  0  0  0
    0.9734   14.3348   -0.0971 N   0  0  0  0  0  0  0  0  0  0  0  0
   -0.2337   14.5970    2.3634 O   0  0  0  0  0  0  0  0  0  0  0  0
   -5.3644   15.1987   -0.4247 F   0  0  0  0  0  0  0  0  0  0  0  0
   -5.0655   14.1264    1.4501 F   0  0  0  0  0  0  0  0  0  0  0  0
   -4.7809   16.2867    1.3730 F   0  0  0  0  0  0  0  0  0  0  0  0
   -0.8298   14.5251   -2.0643 H   0  0  0  0  0  0  0  0  0  0  0  0
   -2.9575   14.8101   -4.3304 H   0  0  0  0  0  0  0  0  0  0  0  0
   -1.9233   13.7827   -3.3272 H   0  0  0  0  0  0  0  0  0  0  0  0
   -1.6663   15.5330   -3.3606 H   0  0  0  0  0  0  0  0  0  0  0  0
   -5.0423   13.8444   -3.1790 H   0  0  0  0  0  0  0  0  0  0  0  0
   -5.1804   13.8926   -1.4160 H   0  0  0  0  0  0  0  0  0  0  0  0
   -4.0098   12.8113   -2.1829 H   0  0  0  0  0  0  0  0  0  0  0  0
   -4.6727   16.3723   -3.2261 H   0  0  0  0  0  0  0  0  0  0  0  0
   -4.8097   16.4310   -1.4636 H   0  0  0  0  0  0  0  0  0  0  0  0
   -3.3829   17.1031   -2.2639 H   0  0  0  0  0  0  0  0  0  0  0  0
   -2.7383   14.9446    2.3532 H   0  0  0  0  0  0  0  0  0  0  0  0
    1.3877   14.2438   -0.9998 H   0  0  0  0  0  0  0  0  0  0  0  0
    1.5049   14.2875    0.7452 H   0  0  0  0  0  0  0  0  0  0  0  0
  1  2  1  0  0  0  0
  1  3  2  0  0  0  0
  2  4  2  0  0  0  0
  2  9  1  0  0  0  0
  3  5  1  0  0  0  0
  3 12  1  0  0  0  0
  4 10  1  0  0  0  0
  4 11  1  0  0  0  0
  5 11  1  0  0  0  0
  5 13  2  0  0  0  0
  6  9  1  0  0  0  0
  7  9  1  0  0  0  0
  8  9  1  0  0  0  0
 10 14  1  0  0  0  0
 10 15  1  0  0  0  0
 10 16  1  0  0  0  0
  1 17  1  0  0  0  0
  6 18  1  0  0  0  0
  6 19  1  0  0  0  0
  6 20  1  0  0  0  0
  7 21  1  0  0  0  0
  7 22  1  0  0  0  0
  7 23  1  0  0  0  0
  8 24  1  0  0  0  0
  8 25  1  0  0  0  0
  8 26  1  0  0  0  0
 11 27  1  0  0  0  0
 12 28  1  0  0  0  0
 12 29  1  0  0  0  0
M  END
> <HYBRID receptor title>
5S18(A) > WOY(A-201)

> <HYBRID receptor filename>
experiments/data/docking/5s18.oedu

> <HYBRID Chemgauss4 score>
-6.864026

> <HYBRID receptor title>
5S18(A) > WOY(A-201)

> <HYBRID receptor filename>
experiments/data/docking/5s18.oedu

> <Dock Type>
Hybrid

$$$$
MOL0056
  -OEChem-07032415493D

 18 18  0     0  0  0  0  0  0999 V2000
   -2.9504   14.8194   -0.9128 C   0  0  0  0  0  0  0  0  0  0  0  0
   -4.4212   15.1687    0.9585 C   0  0  0  0  0  0  0  0  0  0  0  0
   -4.2650   15.0397   -0.3630 C   0  0  0  0  0  0  0  0  0  0  0  0
   -1.8578   14.7380   -0.1328 C   0  0  0  0  0  0  0  0  0  0  0  0
   -2.0379   14.8846    1.3573 C   0  0  0  0  0  0  0  0  0  0  0  0
   -6.4390   14.2504   -1.0312 C   0  0  0  0  0  0  0  0  0  0  0  0
   -5.4407   15.1272   -1.2054 C   0  0  0  0  0  0  0  0  0  0  0  0
   -3.3369   15.0933    1.7950 N   0  0  0  0  0  0  0  0  0  0  0  0
   -0.5853   14.5324   -0.5762 N   0  0  0  0  0  0  0  0  0  0  0  0
   -1.0760   14.8196    2.1209 O   0  0  0  0  0  0  0  0  0  0  0  0
   -2.8581   14.7189   -1.9908 H   0  0  0  0  0  0  0  0  0  0  0  0
   -5.3732   15.3355    1.4486 H   0  0  0  0  0  0  0  0  0  0  0  0
   -7.3380   14.2773   -1.6380 H   0  0  0  0  0  0  0  0  0  0  0  0
   -6.3697   13.4819   -0.2685 H   0  0  0  0  0  0  0  0  0  0  0  0
   -5.4953   15.9034   -1.9659 H   0  0  0  0  0  0  0  0  0  0  0  0
   -3.5058   15.1976    2.7913 H   0  0  0  0  0  0  0  0  0  0  0  0
   -0.4304   14.4316   -1.5562 H   0  0  0  0  0  0  0  0  0  0  0  0
    0.1532   14.4890    0.0920 H   0  0  0  0  0  0  0  0  0  0  0  0
  1  3  1  0  0  0  0
  1  4  2  0  0  0  0
  2  3  2  0  0  0  0
  2  8  1  0  0  0  0
  3  7  1  0  0  0  0
  4  5  1  0  0  0  0
  4  9  1  0  0  0  0
  5  8  1  0  0  0  0
  5 10  2  0  0  0  0
  6  7  2  0  0  0  0
  1 11  1  0  0  0  0
  2 12  1  0  0  0  0
  6 13  1  0  0  0  0
  6 14  1  0  0  0  0
  7 15  1  0  0  0  0
  8 16  1  0  0  0  0
  9 17  1  0  0  0  0
  9 18  1  0  0  0  0
M  END
> <HYBRID receptor title>
5S18(A) > WOY(A-201)

> <HYBRID receptor filename>
experiments/data/docking/5s18.oedu

> <HYBRID Chemgauss4 score>
-6.863162

> <HYBRID receptor title>
5S18(A) > WOY(A-201)

> <HYBRID receptor filename>
experiments/data/docking/5s18.oedu

> <Dock Type>
Hybrid

$$$$
MOL0037
  -OEChem-07032415493D

 18 18  0     0  0  0  0  0  0999 V2000
   -3.5575   14.6213   -1.0123 C   0  0  0  0  0  0  0  0  0  0  0  0
   -4.8681   14.6574    0.9988 C   0  0  0  0  0  0  0  0  0  0  0  0
   -2.4097   14.8665   -0.3553 C   0  0  0  0  0  0  0  0  0  0  0  0
   -4.8317   14.5103   -0.3324 C   0  0  0  0  0  0  0  0  0  0  0  0
   -2.4687   15.0290    1.1404 C   0  0  0  0  0  0  0  0  0  0  0  0
   -5.5347   14.1123   -2.9129 C   0  0  0  0  0  0  0  0  0  0  0  0
   -3.7242   14.9082    1.7120 N   0  0  0  0  0  0  0  0  0  0  0  0
   -1.1802   14.9822   -0.9328 N   0  0  0  0  0  0  0  0  0  0  0  0
   -1.4523   15.2545    1.7949 O   0  0  0  0  0  0  0  0  0  0  0  0
   -6.2590   14.1934   -1.2615 S   0  0  0  0  0  0  0  0  0  0  0  0
   -3.5405   14.5001   -2.0926 H   0  0  0  0  0  0  0  0  0  0  0  0
   -5.7735   14.5913    1.5907 H   0  0  0  0  0  0  0  0  0  0  0  0
   -6.3151   13.9127   -3.6516 H   0  0  0  0  0  0  0  0  0  0  0  0
   -5.0501   15.0618   -3.1525 H   0  0  0  0  0  0  0  0  0  0  0  0
   -4.7919   13.3115   -2.9538 H   0  0  0  0  0  0  0  0  0  0  0  0
   -3.8132   15.0103    2.7188 H   0  0  0  0  0  0  0  0  0  0  0  0
   -1.1047   14.8800   -1.9219 H   0  0  0  0  0  0  0  0  0  0  0  0
   -0.3930   15.1657   -0.3495 H   0  0  0  0  0  0  0  0  0  0  0  0
  1  3  2  0  0  0  0
  1  4  1  0  0  0  0
  2  4  2  0  0  0  0
  2  7  1  0  0  0  0
  3  5  1  0  0  0  0
  3  8  1  0  0  0  0
  4 10  1  0  0  0  0
  5  7  1  0  0  0  0
  5  9  2  0  0  0  0
  6 10  1  0  0  0  0
  1 11  1  0  0  0  0
  2 12  1  0  0  0  0
  6 13  1  0  0  0  0
  6 14  1  0  0  0  0
  6 15  1  0  0  0  0
  7 16  1  0  0  0  0
  8 17  1  0  0  0  0
  8 18  1  0  0  0  0
M  END
> <HYBRID receptor title>
5S18(A) > WOY(A-201)

> <HYBRID receptor filename>
experiments/data/docking/5s18.oedu

> <HYBRID Chemgauss4 score>
-6.861390

> <HYBRID receptor title>
5S18(A) > WOY(A-201)

> <HYBRID receptor filename>
experiments/data/docking/5s18.oedu

> <Dock Type>
Hybrid

$$$$
MOL0118
  -OEChem-07032415493D

 20 20  0     0  0  0  0  0  0999 V2000
   -3.4170   14.6831   -1.2532 C   0  0  0  0  0  0  0  0  0  0  0  0
   -4.8570   14.6819    0.6660 C   0  0  0  0  0  0  0  0  0  0  0  0
   -4.7425   14.6492   -0.6688 C   0  0  0  0  0  0  0  0  0  0  0  0
   -2.3002   14.7456   -0.5077 C   0  0  0  0  0  0  0  0  0  0  0  0
   -2.4496   14.7817    0.9903 C   0  0  0  0  0  0  0  0  0  0  0  0
   -6.3048   13.1528   -1.9073 C   0  0  0  0  0  0  0  0  0  0  0  0
   -5.9143   14.5793   -1.5954 C   0  0  0  0  0  0  0  0  0  0  0  0
   -3.7489   14.7460    1.4696 N   0  0  0  0  0  0  0  0  0  0  0  0
   -1.0275   14.7801   -0.9947 N   0  0  0  0  0  0  0  0  0  0  0  0
   -1.4652   14.8389    1.7248 O   0  0  0  0  0  0  0  0  0  0  0  0
   -5.6304   15.2227   -2.7558 F   0  0  0  0  0  0  0  0  0  0  0  0
   -6.9792   15.2194   -1.0500 F   0  0  0  0  0  0  0  0  0  0  0  0
   -3.3476   14.6560   -2.3373 H   0  0  0  0  0  0  0  0  0  0  0  0
   -5.8094   14.6602    1.1811 H   0  0  0  0  0  0  0  0  0  0  0  0
   -7.1627   13.1097   -2.5858 H   0  0  0  0  0  0  0  0  0  0  0  0
   -5.4703   12.6422   -2.3995 H   0  0  0  0  0  0  0  0  0  0  0  0
   -6.5413   12.5924   -0.9967 H   0  0  0  0  0  0  0  0  0  0  0  0
   -3.8883   14.7686    2.4755 H   0  0  0  0  0  0  0  0  0  0  0  0
   -0.8923   14.7580   -1.9825 H   0  0  0  0  0  0  0  0  0  0  0  0
   -0.2692   14.8264   -0.3492 H   0  0  0  0  0  0  0  0  0  0  0  0
  1  3  1  0  0  0  0
  1  4  2  0  0  0  0
  2  3  2  0  0  0  0
  2  8  1  0  0  0  0
  3  7  1  0  0  0  0
  4  5  1  0  0  0  0
  4  9  1  0  0  0  0
  5  8  1  0  0  0  0
  5 10  2  0  0  0  0
  6  7  1  0  0  0  0
  7 11  1  0  0  0  0
  7 12  1  0  0  0  0
  1 13  1  0  0  0  0
  2 14  1  0  0  0  0
  6 15  1  0  0  0  0
  6 16  1  0  0  0  0
  6 17  1  0  0  0  0
  8 18  1  0  0  0  0
  9 19  1  0  0  0  0
  9 20  1  0  0  0  0
M  END
> <HYBRID receptor title>
5S18(A) > WOY(A-201)

> <HYBRID receptor filename>
experiments/data/docking/5s18.oedu

> <HYBRID Chemgauss4 score>
-6.859460

> <HYBRID receptor title>
5S18(A) > WOY(A-201)

> <HYBRID receptor filename>
experiments/data/docking/5s18.oedu

> <Dock Type>
Hybrid

$$$$
MOL0298
  -OEChem-07032415493D

 27 27  0     1  0  0  0  0  0999 V2000
   -1.2219   14.5289   -1.7599 C   0  0  0  0  0  0  0  0  0  0  0  0
    1.1557   14.3486   -1.4931 C   0  0  0  0  0  0  0  0  0  0  0  0
    0.1053   14.3880   -2.3242 C   0  0  0  0  0  0  0  0  0  0  0  0
   -1.4381   14.6218   -0.4365 C   0  0  0  0  0  0  0  0  0  0  0  0
   -0.2450   14.5755    0.4810 C   0  0  0  0  0  0  0  0  0  0  0  0
   -4.0615   16.2192   -1.1482 C   0  0  0  0  0  0  0  0  0  0  0  0
   -5.0568   14.4504    0.3417 C   0  0  0  0  0  0  0  0  0  0  0  0
   -3.8951   14.8159   -0.5798 C   0  0  2  0  0  0  0  0  0  0  0  0
    0.2269   14.2938   -3.8118 C   0  0  0  0  0  0  0  0  0  0  0  0
    0.9878   14.4392   -0.1362 N   0  0  0  0  0  0  0  0  0  0  0  0
   -2.6583   14.7557    0.1560 N   0  0  0  0  0  0  0  0  0  0  0  0
   -0.3791   14.6558    1.7007 O   0  0  0  0  0  0  0  0  0  0  0  0
   -5.1043   15.3443    1.4481 O   0  0  0  0  0  0  0  0  0  0  0  0
   -0.9848   14.3599   -4.4027 F   0  0  0  0  0  0  0  0  0  0  0  0
    0.9809   15.2982   -4.3057 F   0  0  0  0  0  0  0  0  0  0  0  0
    0.8015   13.1289   -4.1791 F   0  0  0  0  0  0  0  0  0  0  0  0
   -2.0591   14.5582   -2.4521 H   0  0  0  0  0  0  0  0  0  0  0  0
    2.1787   14.2452   -1.8333 H   0  0  0  0  0  0  0  0  0  0  0  0
   -4.1214   16.9605   -0.3459 H   0  0  0  0  0  0  0  0  0  0  0  0
   -4.9782   16.2911   -1.7442 H   0  0  0  0  0  0  0  0  0  0  0  0
   -3.2223   16.4885   -1.8003 H   0  0  0  0  0  0  0  0  0  0  0  0
   -4.9278   13.4409    0.7445 H   0  0  0  0  0  0  0  0  0  0  0  0
   -6.0215   14.4903   -0.1759 H   0  0  0  0  0  0  0  0  0  0  0  0
   -3.8376   14.0920   -1.4000 H   0  0  0  0  0  0  0  0  0  0  0  0
    1.8156   14.4044    0.4516 H   0  0  0  0  0  0  0  0  0  0  0  0
   -2.6906   14.8126    1.1604 H   0  0  0  0  0  0  0  0  0  0  0  0
   -5.8552   15.0680    1.9967 H   0  0  0  0  0  0  0  0  0  0  0  0
  1  3  1  0  0  0  0
  1  4  2  0  0  0  0
  2  3  2  0  0  0  0
  2 10  1  0  0  0  0
  3  9  1  0  0  0  0
  4  5  1  0  0  0  0
  4 11  1  0  0  0  0
  5 10  1  0  0  0  0
  5 12  2  0  0  0  0
  6  8  1  0  0  0  0
  7  8  1  0  0  0  0
  7 13  1  0  0  0  0
  8 11  1  0  0  0  0
  9 14  1  0  0  0  0
  9 15  1  0  0  0  0
  9 16  1  0  0  0  0
  1 17  1  0  0  0  0
  2 18  1  0  0  0  0
  6 19  1  0  0  0  0
  6 20  1  0  0  0  0
  6 21  1  0  0  0  0
  7 22  1  0  0  0  0
  7 23  1  0  0  0  0
  8 24  1  0  0  0  0
 10 25  1  0  0  0  0
 11 26  1  0  0  0  0
 13 27  1  0  0  0  0
M  END
> <HYBRID receptor title>
5S18(A) > WOY(A-201)

> <HYBRID receptor filename>
experiments/data/docking/5s18.oedu

> <HYBRID Chemgauss4 score>
-6.859053

> <HYBRID receptor title>
5S18(A) > WOY(A-201)

> <HYBRID receptor filename>
experiments/data/docking/5s18.oedu

> <Dock Type>
Hybrid

$$$$
MOL0143
  -OEChem-07032415493D

 20 20  0     1  0  0  0  0  0999 V2000
   -1.6692   14.5197   -0.9848 C   0  0  0  0  0  0  0  0  0  0  0  0
   -3.4910   14.7184    0.5638 C   0  0  0  0  0  0  0  0  0  0  0  0
   -3.0900   14.5853   -0.7079 C   0  0  0  0  0  0  0  0  0  0  0  0
   -0.7403   14.5868   -0.0155 C   0  0  0  0  0  0  0  0  0  0  0  0
   -1.2108   14.7364    1.4071 C   0  0  0  0  0  0  0  0  0  0  0  0
   -4.0333   14.5002   -1.8653 C   0  0  2  0  0  0  0  0  0  0  0  0
   -5.4581   14.5450   -1.3793 C   0  0  0  0  0  0  0  0  0  0  0  0
   -2.5832   14.7916    1.5877 N   0  0  0  0  0  0  0  0  0  0  0  0
    0.6077   14.5310   -0.2094 N   0  0  0  0  0  0  0  0  0  0  0  0
   -0.4088   14.8033    2.3368 O   0  0  0  0  0  0  0  0  0  0  0  0
   -3.8416   13.3393   -2.5434 F   0  0  0  0  0  0  0  0  0  0  0  0
   -6.3137   14.4642   -2.4227 F   0  0  0  0  0  0  0  0  0  0  0  0
   -5.7311   13.5212   -0.5428 F   0  0  0  0  0  0  0  0  0  0  0  0
   -5.7209   15.6988   -0.7272 F   0  0  0  0  0  0  0  0  0  0  0  0
   -1.3665   14.4121   -2.0230 H   0  0  0  0  0  0  0  0  0  0  0  0
   -4.5324   14.7751    0.8554 H   0  0  0  0  0  0  0  0  0  0  0  0
   -3.8257   15.3311   -2.5434 H   0  0  0  0  0  0  0  0  0  0  0  0
   -2.9373   14.8922    2.5345 H   0  0  0  0  0  0  0  0  0  0  0  0
    0.9538   14.4325   -1.1396 H   0  0  0  0  0  0  0  0  0  0  0  0
    1.2083   14.5904    0.5841 H   0  0  0  0  0  0  0  0  0  0  0  0
  1  3  1  0  0  0  0
  1  4  2  0  0  0  0
  2  3  2  0  0  0  0
  2  8  1  0  0  0  0
  3  6  1  0  0  0  0
  4  5  1  0  0  0  0
  4  9  1  0  0  0  0
  5  8  1  0  0  0  0
  5 10  2  0  0  0  0
  6  7  1  0  0  0  0
  6 11  1  0  0  0  0
  7 12  1  0  0  0  0
  7 13  1  0  0  0  0
  7 14  1  0  0  0  0
  1 15  1  0  0  0  0
  2 16  1  0  0  0  0
  6 17  1  0  0  0  0
  8 18  1  0  0  0  0
  9 19  1  0  0  0  0
  9 20  1  0  0  0  0
M  END
> <HYBRID receptor title>
5S18(A) > WOY(A-201)

> <HYBRID receptor filename>
experiments/data/docking/5s18.oedu

> <HYBRID Chemgauss4 score>
-6.858423

> <HYBRID receptor title>
5S18(A) > WOY(A-201)

> <HYBRID receptor filename>
experiments/data/docking/5s18.oedu

> <Dock Type>
Hybrid

$$$$
MOL0205
  -OEChem-07032415493D

 26 27  0     0  0  0  0  0  0999 V2000
   -2.8720   15.1261   -1.0488 C   0  0  0  0  0  0  0  0  0  0  0  0
   -4.3603   14.9597    0.8675 C   0  0  0  0  0  0  0  0  0  0  0  0
   -4.1759   15.1191   -0.4466 C   0  0  0  0  0  0  0  0  0  0  0  0
   -1.8203   14.9639   -0.2380 C   0  0  0  0  0  0  0  0  0  0  0  0
   -1.9519   14.7803    1.2329 C   0  0  0  0  0  0  0  0  0  0  0  0
   -5.2064   14.8583   -2.6347 C   0  0  0  0  0  0  0  0  0  0  0  0
   -6.5218   14.7959   -1.0024 C   0  0  0  0  0  0  0  0  0  0  0  0
   -6.7488   14.8435   -2.5309 C   0  0  0  0  0  0  0  0  0  0  0  0
   -7.4623   13.6602   -3.1512 C   0  0  0  0  0  0  0  0  0  0  0  0
   -3.2680   14.7933    1.6921 N   0  0  0  0  0  0  0  0  0  0  0  0
   -5.2137   15.2826   -1.2766 N   0  0  0  0  0  0  0  0  0  0  0  0
   -0.5318   14.9540   -0.7019 N   0  0  0  0  0  0  0  0  0  0  0  0
   -0.9781   14.6317    1.9660 O   0  0  0  0  0  0  0  0  0  0  0  0
   -2.7605   15.2588   -2.1194 H   0  0  0  0  0  0  0  0  0  0  0  0
   -5.3282   14.9499    1.3530 H   0  0  0  0  0  0  0  0  0  0  0  0
   -4.7156   13.8876   -2.7625 H   0  0  0  0  0  0  0  0  0  0  0  0
   -4.7851   15.5966   -3.3218 H   0  0  0  0  0  0  0  0  0  0  0  0
   -7.1306   15.4851   -0.4117 H   0  0  0  0  0  0  0  0  0  0  0  0
   -6.5059   13.8026   -0.5413 H   0  0  0  0  0  0  0  0  0  0  0  0
   -7.1994   15.7923   -2.8578 H   0  0  0  0  0  0  0  0  0  0  0  0
   -7.0071   12.7232   -2.8202 H   0  0  0  0  0  0  0  0  0  0  0  0
   -7.4038   13.7076   -4.2417 H   0  0  0  0  0  0  0  0  0  0  0  0
   -8.5169   13.6544   -2.8611 H   0  0  0  0  0  0  0  0  0  0  0  0
   -3.4310   14.6739    2.6875 H   0  0  0  0  0  0  0  0  0  0  0  0
   -0.3802   15.0722   -1.6773 H   0  0  0  0  0  0  0  0  0  0  0  0
    0.2050   14.8292   -0.0466 H   0  0  0  0  0  0  0  0  0  0  0  0
  1  3  1  0  0  0  0
  1  4  2  0  0  0  0
  2  3  2  0  0  0  0
  2 10  1  0  0  0  0
  3 11  1  0  0  0  0
  4  5  1  0  0  0  0
  4 12  1  0  0  0  0
  5 10  1  0  0  0  0
  5 13  2  0  0  0  0
  6  8  1  0  0  0  0
  6 11  1  0  0  0  0
  7  8  1  0  0  0  0
  7 11  1  0  0  0  0
  8  9  1  0  0  0  0
  1 14  1  0  0  0  0
  2 15  1  0  0  0  0
  6 16  1  0  0  0  0
  6 17  1  0  0  0  0
  7 18  1  0  0  0  0
  7 19  1  0  0  0  0
  8 20  1  0  0  0  0
  9 21  1  0  0  0  0
  9 22  1  0  0  0  0
  9 23  1  0  0  0  0
 10 24  1  0  0  0  0
 12 25  1  0  0  0  0
 12 26  1  0  0  0  0
M  END
> <HYBRID receptor title>
5S18(A) > WOY(A-201)

> <HYBRID receptor filename>
experiments/data/docking/5s18.oedu

> <HYBRID Chemgauss4 score>
-6.858387

> <HYBRID receptor title>
5S18(A) > WOY(A-201)

> <HYBRID receptor filename>
experiments/data/docking/5s18.oedu

> <Dock Type>
Hybrid

$$$$
MOL0231
  -OEChem-07032415493D

 27 27  0     0  0  0  0  0  0999 V2000
   -2.7117   14.8711   -1.0535 C   0  0  0  0  0  0  0  0  0  0  0  0
   -4.4323   15.0221    0.6221 C   0  0  0  0  0  0  0  0  0  0  0  0
   -1.7330   14.7518   -0.1386 C   0  0  0  0  0  0  0  0  0  0  0  0
   -4.0975   15.0102   -0.6716 C   0  0  0  0  0  0  0  0  0  0  0  0
   -2.1171   14.7665    1.3199 C   0  0  0  0  0  0  0  0  0  0  0  0
   -6.6376   13.0236   -2.8894 C   0  0  0  0  0  0  0  0  0  0  0  0
   -5.2545   13.2815   -4.9683 C   0  0  0  0  0  0  0  0  0  0  0  0
   -4.5385   14.4327   -2.8535 C   0  0  0  0  0  0  0  0  0  0  0  0
   -5.7337   13.9644   -3.6889 C   0  0  0  0  0  0  0  0  0  0  0  0
   -3.4699   14.9040    1.5907 N   0  0  0  0  0  0  0  0  0  0  0  0
   -0.4056   14.6170   -0.4187 N   0  0  0  0  0  0  0  0  0  0  0  0
   -1.2645   14.6614    2.2000 O   0  0  0  0  0  0  0  0  0  0  0  0
   -4.9949   15.1243   -1.7040 O   0  0  0  0  0  0  0  0  0  0  0  0
   -2.4786   14.8648   -2.1145 H   0  0  0  0  0  0  0  0  0  0  0  0
   -5.4511   15.1235    0.9739 H   0  0  0  0  0  0  0  0  0  0  0  0
   -6.0986   12.1207   -2.5827 H   0  0  0  0  0  0  0  0  0  0  0  0
   -7.0200   13.5130   -1.9881 H   0  0  0  0  0  0  0  0  0  0  0  0
   -7.5004   12.7149   -3.4885 H   0  0  0  0  0  0  0  0  0  0  0  0
   -4.6505   12.3982   -4.7350 H   0  0  0  0  0  0  0  0  0  0  0  0
   -6.1043   12.9535   -5.5758 H   0  0  0  0  0  0  0  0  0  0  0  0
   -4.6438   13.9588   -5.5757 H   0  0  0  0  0  0  0  0  0  0  0  0
   -3.9266   13.5838   -2.5296 H   0  0  0  0  0  0  0  0  0  0  0  0
   -3.9090   15.1166   -3.4326 H   0  0  0  0  0  0  0  0  0  0  0  0
   -6.3332   14.8417   -3.9620 H   0  0  0  0  0  0  0  0  0  0  0  0
   -3.7646   14.9181    2.5627 H   0  0  0  0  0  0  0  0  0  0  0  0
   -0.1170   14.6035   -1.3731 H   0  0  0  0  0  0  0  0  0  0  0  0
    0.2373   14.5359    0.3388 H   0  0  0  0  0  0  0  0  0  0  0  0
  1  3  2  0  0  0  0
  1  4  1  0  0  0  0
  2  4  2  0  0  0  0
  2 10  1  0  0  0  0
  3  5  1  0  0  0  0
  3 11  1  0  0  0  0
  4 13  1  0  0  0  0
  5 10  1  0  0  0  0
  5 12  2  0  0  0  0
  6  9  1  0  0  0  0
  7  9  1  0  0  0  0
  8  9  1  0  0  0  0
  8 13  1  0  0  0  0
  1 14  1  0  0  0  0
  2 15  1  0  0  0  0
  6 16  1  0  0  0  0
  6 17  1  0  0  0  0
  6 18  1  0  0  0  0
  7 19  1  0  0  0  0
  7 20  1  0  0  0  0
  7 21  1  0  0  0  0
  8 22  1  0  0  0  0
  8 23  1  0  0  0  0
  9 24  1  0  0  0  0
 10 25  1  0  0  0  0
 11 26  1  0  0  0  0
 11 27  1  0  0  0  0
M  END
> <HYBRID receptor title>
5S18(A) > WOY(A-201)

> <HYBRID receptor filename>
experiments/data/docking/5s18.oedu

> <HYBRID Chemgauss4 score>
-6.857155

> <HYBRID receptor title>
5S18(A) > WOY(A-201)

> <HYBRID receptor filename>
experiments/data/docking/5s18.oedu

> <Dock Type>
Hybrid

$$$$
MOL0120
  -OEChem-07032415493D

 26 26  0     1  0  0  0  0  0999 V2000
   -2.2034   14.8478   -1.2224 C   0  0  0  0  0  0  0  0  0  0  0  0
   -3.9003   14.9297    0.4719 C   0  0  0  0  0  0  0  0  0  0  0  0
   -3.5988   14.8588   -0.8318 C   0  0  0  0  0  0  0  0  0  0  0  0
   -1.2022   14.9057   -0.3273 C   0  0  0  0  0  0  0  0  0  0  0  0
   -1.5613   14.9851    1.1329 C   0  0  0  0  0  0  0  0  0  0  0  0
   -5.3791   13.3733   -3.8997 C   0  0  0  0  0  0  0  0  0  0  0  0
   -6.0105   14.8759   -1.2727 C   0  0  0  0  0  0  0  0  0  0  0  0
   -4.4209   13.5057   -2.7259 C   0  0  0  0  0  0  0  0  0  0  0  0
   -4.6289   14.7900   -1.9138 C   0  0  2  0  0  0  0  0  0  0  0  0
   -2.9159   14.9909    1.4232 N   0  0  0  0  0  0  0  0  0  0  0  0
    0.1271   14.8990   -0.6290 N   0  0  0  0  0  0  0  0  0  0  0  0
   -0.6897   15.0403    1.9985 O   0  0  0  0  0  0  0  0  0  0  0  0
   -1.9819   14.7902   -2.2847 H   0  0  0  0  0  0  0  0  0  0  0  0
   -4.9162   14.9429    0.8467 H   0  0  0  0  0  0  0  0  0  0  0  0
   -6.4200   13.4215   -3.5655 H   0  0  0  0  0  0  0  0  0  0  0  0
   -5.2291   12.4110   -4.3996 H   0  0  0  0  0  0  0  0  0  0  0  0
   -5.2162   14.1602   -4.6415 H   0  0  0  0  0  0  0  0  0  0  0  0
   -6.1902   14.0143   -0.6203 H   0  0  0  0  0  0  0  0  0  0  0  0
   -6.8027   14.8896   -2.0279 H   0  0  0  0  0  0  0  0  0  0  0  0
   -6.1072   15.7772   -0.6573 H   0  0  0  0  0  0  0  0  0  0  0  0
   -3.3882   13.4535   -3.0944 H   0  0  0  0  0  0  0  0  0  0  0  0
   -4.5552   12.6377   -2.0682 H   0  0  0  0  0  0  0  0  0  0  0  0
   -4.4788   15.6648   -2.5599 H   0  0  0  0  0  0  0  0  0  0  0  0
   -3.1958   15.0435    2.3983 H   0  0  0  0  0  0  0  0  0  0  0  0
    0.4002   14.8476   -1.5868 H   0  0  0  0  0  0  0  0  0  0  0  0
    0.7873   14.9459    0.1165 H   0  0  0  0  0  0  0  0  0  0  0  0
  1  3  1  0  0  0  0
  1  4  2  0  0  0  0
  2  3  2  0  0  0  0
  2 10  1  0  0  0  0
  3  9  1  0  0  0  0
  4  5  1  0  0  0  0
  4 11  1  0  0  0  0
  5 10  1  0  0  0  0
  5 12  2  0  0  0  0
  6  8  1  0  0  0  0
  7  9  1  0  0  0  0
  8  9  1  0  0  0  0
  1 13  1  0  0  0  0
  2 14  1  0  0  0  0
  6 15  1  0  0  0  0
  6 16  1  0  0  0  0
  6 17  1  0  0  0  0
  7 18  1  0  0  0  0
  7 19  1  0  0  0  0
  7 20  1  0  0  0  0
  8 21  1  0  0  0  0
  8 22  1  0  0  0  0
  9 23  1  0  0  0  0
 10 24  1  0  0  0  0
 11 25  1  0  0  0  0
 11 26  1  0  0  0  0
M  END
> <HYBRID receptor title>
5S18(A) > WOY(A-201)

> <HYBRID receptor filename>
experiments/data/docking/5s18.oedu

> <HYBRID Chemgauss4 score>
-6.846707

> <HYBRID receptor title>
5S18(A) > WOY(A-201)

> <HYBRID receptor filename>
experiments/data/docking/5s18.oedu

> <Dock Type>
Hybrid

$$$$
MOL0077
  -OEChem-07032415493D

 18 18  0     0  0  0  0  0  0999 V2000
   -2.0188   14.6407   -1.0213 C   0  0  0  0  0  0  0  0  0  0  0  0
   -3.8154   14.9555    0.5396 C   0  0  0  0  0  0  0  0  0  0  0  0
   -1.0886   14.5867   -0.0512 C   0  0  0  0  0  0  0  0  0  0  0  0
   -3.4263   14.8298   -0.7363 C   0  0  0  0  0  0  0  0  0  0  0  0
   -1.5432   14.7296    1.3770 C   0  0  0  0  0  0  0  0  0  0  0  0
   -3.7187   13.8253   -3.2242 C   0  0  0  0  0  0  0  0  0  0  0  0
   -2.9039   14.9068    1.5628 N   0  0  0  0  0  0  0  0  0  0  0  0
    0.2486   14.4111   -0.2505 N   0  0  0  0  0  0  0  0  0  0  0  0
   -0.7387   14.6885    2.3062 O   0  0  0  0  0  0  0  0  0  0  0  0
   -3.1535   12.7495   -2.6243 F   0  0  0  0  0  0  0  0  0  0  0  0
   -2.7400   14.4780   -3.8958 F   0  0  0  0  0  0  0  0  0  0  0  0
   -4.5911   13.3550   -4.1473 F   0  0  0  0  0  0  0  0  0  0  0  0
   -4.5530   14.8874   -2.0508 S   0  0  0  0  0  0  0  0  0  0  0  0
   -1.7151   14.5399   -2.0604 H   0  0  0  0  0  0  0  0  0  0  0  0
   -4.8444   15.1001    0.8473 H   0  0  0  0  0  0  0  0  0  0  0  0
   -3.2575   15.0079    2.5098 H   0  0  0  0  0  0  0  0  0  0  0  0
    0.5843   14.3127   -1.1843 H   0  0  0  0  0  0  0  0  0  0  0  0
    0.8513   14.3863    0.5431 H   0  0  0  0  0  0  0  0  0  0  0  0
  1  3  2  0  0  0  0
  1  4  1  0  0  0  0
  2  4  2  0  0  0  0
  2  7  1  0  0  0  0
  3  5  1  0  0  0  0
  3  8  1  0  0  0  0
  4 13  1  0  0  0  0
  5  7  1  0  0  0  0
  5  9  2  0  0  0  0
  6 10  1  0  0  0  0
  6 11  1  0  0  0  0
  6 12  1  0  0  0  0
  6 13  1  0  0  0  0
  1 14  1  0  0  0  0
  2 15  1  0  0  0  0
  7 16  1  0  0  0  0
  8 17  1  0  0  0  0
  8 18  1  0  0  0  0
M  END
> <HYBRID receptor title>
5S18(A) > WOY(A-201)

> <HYBRID receptor filename>
experiments/data/docking/5s18.oedu

> <HYBRID Chemgauss4 score>
-6.826010

> <HYBRID receptor title>
5S18(A) > WOY(A-201)

> <HYBRID receptor filename>
experiments/data/docking/5s18.oedu

> <Dock Type>
Hybrid

$$$$
MOL0032
  -OEChem-07032415493D

 19 19  0     0  0  0  0  0  0999 V2000
   -3.0020   14.5592   -1.3297 C   0  0  0  0  0  0  0  0  0  0  0  0
   -4.3730   14.4515   -0.8416 C   0  0  0  0  0  0  0  0  0  0  0  0
   -1.9424   14.7464   -0.5243 C   0  0  0  0  0  0  0  0  0  0  0  0
   -4.5556   14.5479    0.4867 C   0  0  0  0  0  0  0  0  0  0  0  0
   -2.1889   14.8490    0.9540 C   0  0  0  0  0  0  0  0  0  0  0  0
   -5.3955   14.2440   -1.9258 C   0  0  0  0  0  0  0  0  0  0  0  0
   -3.5093   14.7388    1.3519 N   0  0  0  0  0  0  0  0  0  0  0  0
   -0.6472   14.8525   -0.9364 N   0  0  0  0  0  0  0  0  0  0  0  0
   -5.8866   14.4455    0.9845 N   0  3  0  0  0  0  0  0  0  0  0  0
   -6.7882   14.2738    0.1541 O   0  5  0  0  0  0  0  0  0  0  0  0
   -1.2616   15.0203    1.7431 O   0  0  0  0  0  0  0  0  0  0  0  0
   -6.0401   14.5369    2.2091 O   0  0  0  0  0  0  0  0  0  0  0  0
   -4.8050   14.2026   -3.1352 F   0  0  0  0  0  0  0  0  0  0  0  0
   -6.0600   13.0874   -1.7441 F   0  0  0  0  0  0  0  0  0  0  0  0
   -6.2938   15.2470   -1.9315 F   0  0  0  0  0  0  0  0  0  0  0  0
   -2.8503   14.4816   -2.4038 H   0  0  0  0  0  0  0  0  0  0  0  0
   -3.7196   14.8026    2.3441 H   0  0  0  0  0  0  0  0  0  0  0  0
   -0.4487   14.7888   -1.9116 H   0  0  0  0  0  0  0  0  0  0  0  0
    0.0632   14.9908   -0.2509 H   0  0  0  0  0  0  0  0  0  0  0  0
  1  2  1  0  0  0  0
  1  3  2  0  0  0  0
  2  4  2  0  0  0  0
  2  6  1  0  0  0  0
  3  5  1  0  0  0  0
  3  8  1  0  0  0  0
  4  7  1  0  0  0  0
  4  9  1  0  0  0  0
  5  7  1  0  0  0  0
  5 11  2  0  0  0  0
  6 13  1  0  0  0  0
  6 14  1  0  0  0  0
  6 15  1  0  0  0  0
  9 10  1  0  0  0  0
  9 12  2  0  0  0  0
  1 16  1  0  0  0  0
  7 17  1  0  0  0  0
  8 18  1  0  0  0  0
  8 19  1  0  0  0  0
M  CHG  2   9   1  10  -1
M  END
> <HYBRID receptor title>
5S18(A) > WOY(A-201)

> <HYBRID receptor filename>
experiments/data/docking/5s18.oedu

> <HYBRID Chemgauss4 score>
-6.818153

> <HYBRID receptor title>
5S18(A) > WOY(A-201)

> <HYBRID receptor filename>
experiments/data/docking/5s18.oedu

> <Dock Type>
Hybrid

$$$$
MOL0346
  -OEChem-07032415493D

 17 17  0     0  0  0  0  0  0999 V2000
   -4.6497   15.0945   -0.3600 C   0  0  0  0  0  0  0  0  0  0  0  0
   -4.7201   15.2352    0.9655 C   0  0  0  0  0  0  0  0  0  0  0  0
   -3.3646   14.8953   -1.0089 C   0  0  0  0  0  0  0  0  0  0  0  0
   -2.2235   14.8484   -0.2857 C   0  0  0  0  0  0  0  0  0  0  0  0
   -2.3196   15.0102    1.2159 C   0  0  0  0  0  0  0  0  0  0  0  0
   -3.4385   14.7517   -2.5041 C   0  0  0  0  0  0  0  0  0  0  0  0
   -3.5895   15.1951    1.7323 N   0  0  0  0  0  0  0  0  0  0  0  0
   -0.9563   14.6685   -0.7612 N   0  0  0  0  0  0  0  0  0  0  0  0
   -1.3124   14.9764    1.9217 O   0  0  0  0  0  0  0  0  0  0  0  0
   -5.5497   15.1270   -0.9644 H   0  0  0  0  0  0  0  0  0  0  0  0
   -5.6534   15.3854    1.4927 H   0  0  0  0  0  0  0  0  0  0  0  0
   -3.3507   15.7323   -2.9634 H   0  0  0  0  0  0  0  0  0  0  0  0
   -4.3896   14.3025   -2.7762 H   0  0  0  0  0  0  0  0  0  0  0  0
   -2.6283   14.1125   -2.8438 H   0  0  0  0  0  0  0  0  0  0  0  0
   -3.6871   15.3071    2.7370 H   0  0  0  0  0  0  0  0  0  0  0  0
   -0.8272   14.5569   -1.7428 H   0  0  0  0  0  0  0  0  0  0  0  0
   -0.2014   14.6546   -0.1120 H   0  0  0  0  0  0  0  0  0  0  0  0
  1  2  2  0  0  0  0
  1  3  1  0  0  0  0
  2  7  1  0  0  0  0
  3  4  2  0  0  0  0
  3  6  1  0  0  0  0
  4  5  1  0  0  0  0
  4  8  1  0  0  0  0
  5  7  1  0  0  0  0
  5  9  2  0  0  0  0
  1 10  1  0  0  0  0
  2 11  1  0  0  0  0
  6 12  1  0  0  0  0
  6 13  1  0  0  0  0
  6 14  1  0  0  0  0
  7 15  1  0  0  0  0
  8 16  1  0  0  0  0
  8 17  1  0  0  0  0
M  END
> <HYBRID receptor title>
5S18(A) > WOY(A-201)

> <HYBRID receptor filename>
experiments/data/docking/5s18.oedu

> <HYBRID Chemgauss4 score>
-6.817159

> <HYBRID receptor title>
5S18(A) > WOY(A-201)

> <HYBRID receptor filename>
experiments/data/docking/5s18.oedu

> <Dock Type>
Hybrid

$$$$
MOL0048
  -OEChem-07032415493D

 29 29  0     0  0  0  0  0  0999 V2000
   -3.6115   14.8276   -0.9634 C   0  0  0  0  0  0  0  0  0  0  0  0
   -5.0462   14.7878    0.9593 C   0  0  0  0  0  0  0  0  0  0  0  0
   -4.9352   14.7773   -0.3761 C   0  0  0  0  0  0  0  0  0  0  0  0
   -2.4929   14.8840   -0.2200 C   0  0  0  0  0  0  0  0  0  0  0  0
   -2.6385   14.8950    1.2787 C   0  0  0  0  0  0  0  0  0  0  0  0
   -0.9370   14.2452   -3.0144 C   0  0  0  0  0  0  0  0  0  0  0  0
    0.8593   13.8415   -1.3121 C   0  0  0  0  0  0  0  0  0  0  0  0
   -1.2880   12.5568   -1.1939 C   0  0  0  0  0  0  0  0  0  0  0  0
   -6.1092   14.7161   -1.3006 C   0  0  0  0  0  0  0  0  0  0  0  0
   -0.6542   13.9074   -1.5469 C   0  0  0  0  0  0  0  0  0  0  0  0
   -3.9362   14.8448    1.7608 N   0  0  0  0  0  0  0  0  0  0  0  0
   -1.2218   14.9330   -0.7098 N   0  0  0  0  0  0  0  0  0  0  0  0
   -1.6523   14.9457    2.0115 O   0  0  0  0  0  0  0  0  0  0  0  0
   -5.7114   14.7186   -2.5904 F   0  0  0  0  0  0  0  0  0  0  0  0
   -6.8354   13.5972   -1.0959 F   0  0  0  0  0  0  0  0  0  0  0  0
   -6.9256   15.7756   -1.1191 F   0  0  0  0  0  0  0  0  0  0  0  0
   -3.5449   14.8184   -2.0480 H   0  0  0  0  0  0  0  0  0  0  0  0
   -5.9970   14.7529    1.4766 H   0  0  0  0  0  0  0  0  0  0  0  0
   -2.0143   14.2979   -3.2067 H   0  0  0  0  0  0  0  0  0  0  0  0
   -0.5117   15.2190   -3.2852 H   0  0  0  0  0  0  0  0  0  0  0  0
   -0.5107   13.4923   -3.6862 H   0  0  0  0  0  0  0  0  0  0  0  0
    1.0868   13.6005   -0.2659 H   0  0  0  0  0  0  0  0  0  0  0  0
    1.3369   14.8032   -1.5338 H   0  0  0  0  0  0  0  0  0  0  0  0
    1.3285   13.0791   -1.9437 H   0  0  0  0  0  0  0  0  0  0  0  0
   -1.0987   12.2934   -0.1472 H   0  0  0  0  0  0  0  0  0  0  0  0
   -2.3754   12.5818   -1.3302 H   0  0  0  0  0  0  0  0  0  0  0  0
   -0.8889   11.7527   -1.8216 H   0  0  0  0  0  0  0  0  0  0  0  0
   -4.0730   14.8505    2.7674 H   0  0  0  0  0  0  0  0  0  0  0  0
   -0.6561   15.7310   -0.4727 H   0  0  0  0  0  0  0  0  0  0  0  0
  1  3  1  0  0  0  0
  1  4  2  0  0  0  0
  2  3  2  0  0  0  0
  2 11  1  0  0  0  0
  3  9  1  0  0  0  0
  4  5  1  0  0  0  0
  4 12  1  0  0  0  0
  5 11  1  0  0  0  0
  5 13  2  0  0  0  0
  6 10  1  0  0  0  0
  7 10  1  0  0  0  0
  8 10  1  0  0  0  0
  9 14  1  0  0  0  0
  9 15  1  0  0  0  0
  9 16  1  0  0  0  0
 10 12  1  0  0  0  0
  1 17  1  0  0  0  0
  2 18  1  0  0  0  0
  6 19  1  0  0  0  0
  6 20  1  0  0  0  0
  6 21  1  0  0  0  0
  7 22  1  0  0  0  0
  7 23  1  0  0  0  0
  7 24  1  0  0  0  0
  8 25  1  0  0  0  0
  8 26  1  0  0  0  0
  8 27  1  0  0  0  0
 11 28  1  0  0  0  0
 12 29  1  0  0  0  0
M  END
> <HYBRID receptor title>
5S18(A) > WOY(A-201)

> <HYBRID receptor filename>
experiments/data/docking/5s18.oedu

> <HYBRID Chemgauss4 score>
-6.804703

> <HYBRID receptor title>
5S18(A) > WOY(A-201)

> <HYBRID receptor filename>
experiments/data/docking/5s18.oedu

> <Dock Type>
Hybrid

$$$$
MOL0259
  -OEChem-07032415493D

 19 19  0     0  0  0  0  0  0999 V2000
   -0.8282   14.5741   -0.4848 C   0  0  0  0  0  0  0  0  0  0  0  0
   -2.8984   14.9913    1.2435 C   0  0  0  0  0  0  0  0  0  0  0  0
   -2.1302   14.5939   -0.9722 C   0  0  0  0  0  0  0  0  0  0  0  0
   -3.1909   14.8059   -0.0986 C   0  0  0  0  0  0  0  0  0  0  0  0
   -0.6412   14.7699    0.8740 C   0  0  0  0  0  0  0  0  0  0  0  0
   -2.3657   14.3863   -2.4317 C   0  0  0  0  0  0  0  0  0  0  0  0
   -4.6042   14.8367   -0.5671 C   0  0  0  0  0  0  0  0  0  0  0  0
   -1.6464   14.9787    1.7535 N   0  0  0  0  0  0  0  0  0  0  0  0
    0.6911   14.7471    1.3559 N   0  0  0  0  0  0  0  0  0  0  0  0
   -1.2209   14.1922   -3.1497 F   0  0  0  0  0  0  0  0  0  0  0  0
   -2.9906   15.4483   -3.0174 F   0  0  0  0  0  0  0  0  0  0  0  0
   -3.1487   13.3018   -2.7062 F   0  0  0  0  0  0  0  0  0  0  0  0
   -5.5118   15.0567    0.4307 F   0  0  0  0  0  0  0  0  0  0  0  0
   -4.9893   13.6671   -1.1578 F   0  0  0  0  0  0  0  0  0  0  0  0
   -4.8516   15.8114   -1.4930 F   0  0  0  0  0  0  0  0  0  0  0  0
    0.0123   14.4100   -1.1525 H   0  0  0  0  0  0  0  0  0  0  0  0
   -3.6842   15.1610    1.9732 H   0  0  0  0  0  0  0  0  0  0  0  0
    1.4291   14.5409    0.7187 H   0  0  0  0  0  0  0  0  0  0  0  0
    0.8494   14.8323    2.3361 H   0  0  0  0  0  0  0  0  0  0  0  0
  1  3  2  0  0  0  0
  1  5  1  0  0  0  0
  2  4  2  0  0  0  0
  2  8  1  0  0  0  0
  3  4  1  0  0  0  0
  3  6  1  0  0  0  0
  4  7  1  0  0  0  0
  5  8  2  0  0  0  0
  5  9  1  0  0  0  0
  6 10  1  0  0  0  0
  6 11  1  0  0  0  0
  6 12  1  0  0  0  0
  7 13  1  0  0  0  0
  7 14  1  0  0  0  0
  7 15  1  0  0  0  0
  1 16  1  0  0  0  0
  2 17  1  0  0  0  0
  9 18  1  0  0  0  0
  9 19  1  0  0  0  0
M  END
> <HYBRID receptor title>
5S18(A) > WOY(A-201)

> <HYBRID receptor filename>
experiments/data/docking/5s18.oedu

> <HYBRID Chemgauss4 score>
-6.803239

> <HYBRID receptor title>
5S18(A) > WOY(A-201)

> <HYBRID receptor filename>
experiments/data/docking/5s18.oedu

> <Dock Type>
Hybrid

$$$$
MOL0344
  -OEChem-07032415493D

 28 29  0     0  0  0  0  0  0999 V2000
   -2.9490   14.9970   -0.2438 C   0  0  0  0  0  0  0  0  0  0  0  0
   -0.3825   14.8691    0.6746 C   0  0  0  0  0  0  0  0  0  0  0  0
   -0.6162   14.5866   -0.6620 C   0  0  0  0  0  0  0  0  0  0  0  0
   -1.9267   14.6541   -1.1216 C   0  0  0  0  0  0  0  0  0  0  0  0
   -2.6113   15.2611    1.0738 C   0  0  0  0  0  0  0  0  0  0  0  0
    0.9584   12.8712   -1.7386 C   0  0  0  0  0  0  0  0  0  0  0  0
    1.1352   15.2211   -2.1812 C   0  0  0  0  0  0  0  0  0  0  0  0
    0.4964   14.2345   -1.5305 C   0  0  0  0  0  0  0  0  0  0  0  0
    1.9891   12.5644   -2.5456 C   0  0  0  0  0  0  0  0  0  0  0  0
    2.6868   13.6891   -3.2602 C   0  0  0  0  0  0  0  0  0  0  0  0
   -2.2701   14.3642   -2.5469 C   0  0  0  0  0  0  0  0  0  0  0  0
   -1.3500   15.2057    1.5570 N   0  0  0  0  0  0  0  0  0  0  0  0
    2.1917   14.9580   -3.0141 N   0  0  0  0  0  0  0  0  0  0  0  0
   -3.6641   15.6088    1.9564 N   0  0  0  0  0  0  0  0  0  0  0  0
    2.4626   11.3074   -2.7779 N   0  0  0  0  0  0  0  0  0  0  0  0
    3.6365   13.4731   -4.0109 O   0  0  0  0  0  0  0  0  0  0  0  0
   -3.6018   14.4767   -2.8223 F   0  0  0  0  0  0  0  0  0  0  0  0
   -1.9223   13.0996   -2.9206 F   0  0  0  0  0  0  0  0  0  0  0  0
   -1.6482   15.1952   -3.4331 F   0  0  0  0  0  0  0  0  0  0  0  0
   -3.9786   15.0550   -0.5844 H   0  0  0  0  0  0  0  0  0  0  0  0
    0.6177   14.8350    1.0970 H   0  0  0  0  0  0  0  0  0  0  0  0
    0.4292   12.0845   -1.2068 H   0  0  0  0  0  0  0  0  0  0  0  0
    0.8660   16.2677   -2.0940 H   0  0  0  0  0  0  0  0  0  0  0  0
    2.6310   15.7494   -3.4752 H   0  0  0  0  0  0  0  0  0  0  0  0
   -4.5865   15.7016    1.5909 H   0  0  0  0  0  0  0  0  0  0  0  0
   -3.4419   15.8550    2.8961 H   0  0  0  0  0  0  0  0  0  0  0  0
    2.0219   10.5381   -2.3213 H   0  0  0  0  0  0  0  0  0  0  0  0
    3.2353   11.1940   -3.3974 H   0  0  0  0  0  0  0  0  0  0  0  0
  1  4  2  0  0  0  0
  1  5  1  0  0  0  0
  2  3  2  0  0  0  0
  2 12  1  0  0  0  0
  3  4  1  0  0  0  0
  3  8  1  0  0  0  0
  4 11  1  0  0  0  0
  5 12  2  0  0  0  0
  5 14  1  0  0  0  0
  6  8  1  0  0  0  0
  6  9  2  0  0  0  0
  7  8  2  0  0  0  0
  7 13  1  0  0  0  0
  9 10  1  0  0  0  0
  9 15  1  0  0  0  0
 10 13  1  0  0  0  0
 10 16  2  0  0  0  0
 11 17  1  0  0  0  0
 11 18  1  0  0  0  0
 11 19  1  0  0  0  0
  1 20  1  0  0  0  0
  2 21  1  0  0  0  0
  6 22  1  0  0  0  0
  7 23  1  0  0  0  0
 13 24  1  0  0  0  0
 14 25  1  0  0  0  0
 14 26  1  0  0  0  0
 15 27  1  0  0  0  0
 15 28  1  0  0  0  0
M  END
> <HYBRID receptor title>
5S18(A) > WOY(A-201)

> <HYBRID receptor filename>
experiments/data/docking/5s18.oedu

> <HYBRID Chemgauss4 score>
-6.801275

> <HYBRID receptor title>
5S18(A) > WOY(A-201)

> <HYBRID receptor filename>
experiments/data/docking/5s18.oedu

> <Dock Type>
Hybrid

$$$$
MOL0000
  -OEChem-07032415493D

 26 26  0     0  0  0  0  0  0999 V2000
   -3.0760   14.8899   -1.0312 C   0  0  0  0  0  0  0  0  0  0  0  0
   -4.6688   15.0401    0.7568 C   0  0  0  0  0  0  0  0  0  0  0  0
   -4.4444   14.9781   -0.5629 C   0  0  0  0  0  0  0  0  0  0  0  0
   -2.0255   14.8677   -0.1929 C   0  0  0  0  0  0  0  0  0  0  0  0
   -2.2982   14.9384    1.2863 C   0  0  0  0  0  0  0  0  0  0  0  0
   -5.4770   13.7019   -2.4165 C   0  0  0  0  0  0  0  0  0  0  0  0
   -6.9049   15.0930   -0.8920 C   0  0  0  0  0  0  0  0  0  0  0  0
   -5.3604   16.2060   -2.5191 C   0  0  0  0  0  0  0  0  0  0  0  0
   -5.5347   14.9950   -1.5864 C   0  0  0  0  0  0  0  0  0  0  0  0
   -3.6318   15.0210    1.6523 N   0  0  0  0  0  0  0  0  0  0  0  0
   -0.7178   14.7860   -0.5688 N   0  0  0  0  0  0  0  0  0  0  0  0
   -1.3785   14.9221    2.1024 O   0  0  0  0  0  0  0  0  0  0  0  0
   -2.9172   14.8411   -2.1052 H   0  0  0  0  0  0  0  0  0  0  0  0
   -5.6599   15.1075    1.1882 H   0  0  0  0  0  0  0  0  0  0  0  0
   -6.2656   13.6837   -3.1777 H   0  0  0  0  0  0  0  0  0  0  0  0
   -5.6049   12.8142   -1.7852 H   0  0  0  0  0  0  0  0  0  0  0  0
   -4.5151   13.6050   -2.9333 H   0  0  0  0  0  0  0  0  0  0  0  0
   -7.7237   15.1073   -1.6205 H   0  0  0  0  0  0  0  0  0  0  0  0
   -6.9793   16.0067   -0.2912 H   0  0  0  0  0  0  0  0  0  0  0  0
   -7.0729   14.2419   -0.2230 H   0  0  0  0  0  0  0  0  0  0  0  0
   -6.1475   16.2430   -3.2804 H   0  0  0  0  0  0  0  0  0  0  0  0
   -5.3972   17.1471   -1.9582 H   0  0  0  0  0  0  0  0  0  0  0  0
   -4.3978   16.1700   -3.0418 H   0  0  0  0  0  0  0  0  0  0  0  0
   -3.8538   15.0703    2.6423 H   0  0  0  0  0  0  0  0  0  0  0  0
   -0.5015   14.7380   -1.5412 H   0  0  0  0  0  0  0  0  0  0  0  0
   -0.0160   14.7769    0.1391 H   0  0  0  0  0  0  0  0  0  0  0  0
  1  3  1  0  0  0  0
  1  4  2  0  0  0  0
  2  3  2  0  0  0  0
  2 10  1  0  0  0  0
  3  9  1  0  0  0  0
  4  5  1  0  0  0  0
  4 11  1  0  0  0  0
  5 10  1  0  0  0  0
  5 12  2  0  0  0  0
  6  9  1  0  0  0  0
  7  9  1  0  0  0  0
  8  9  1  0  0  0  0
  1 13  1  0  0  0  0
  2 14  1  0  0  0  0
  6 15  1  0  0  0  0
  6 16  1  0  0  0  0
  6 17  1  0  0  0  0
  7 18  1  0  0  0  0
  7 19  1  0  0  0  0
  7 20  1  0  0  0  0
  8 21  1  0  0  0  0
  8 22  1  0  0  0  0
  8 23  1  0  0  0  0
 10 24  1  0  0  0  0
 11 25  1  0  0  0  0
 11 26  1  0  0  0  0
M  END
> <HYBRID receptor title>
5S18(A) > WOY(A-201)

> <HYBRID receptor filename>
experiments/data/docking/5s18.oedu

> <HYBRID Chemgauss4 score>
-6.790637

> <HYBRID receptor title>
5S18(A) > WOY(A-201)

> <HYBRID receptor filename>
experiments/data/docking/5s18.oedu

> <Dock Type>
Hybrid

$$$$
MOL0305
  -OEChem-07032415493D

 29 29  0     0  0  0  0  0  0999 V2000
   -1.6719   14.7482   -1.1315 C   0  0  0  0  0  0  0  0  0  0  0  0
   -3.5310   15.0460    0.3557 C   0  0  0  0  0  0  0  0  0  0  0  0
   -3.0835   14.9851   -0.9060 C   0  0  0  0  0  0  0  0  0  0  0  0
   -0.7964   14.5873   -0.1243 C   0  0  0  0  0  0  0  0  0  0  0  0
   -1.3185   14.6593    1.2862 C   0  0  0  0  0  0  0  0  0  0  0  0
   -7.2743   13.3650    0.1439 C   0  0  0  0  0  0  0  0  0  0  0  0
   -3.9621   15.1484   -2.0979 C   0  0  0  0  0  0  0  0  0  0  0  0
   -6.4914   14.0172   -0.9842 C   0  0  0  0  0  0  0  0  0  0  0  0
   -4.5289   13.8067   -2.5603 C   0  0  0  0  0  0  0  0  0  0  0  0
   -5.3351   13.1321   -1.4487 C   0  0  0  0  0  0  0  0  0  0  0  0
   -2.6785   14.8886    1.4169 N   0  0  0  0  0  0  0  0  0  0  0  0
    0.5402   14.3621   -0.2692 N   0  0  0  0  0  0  0  0  0  0  0  0
   -0.5664   14.5199    2.2490 O   0  0  0  0  0  0  0  0  0  0  0  0
   -1.3309   14.7030   -2.1623 H   0  0  0  0  0  0  0  0  0  0  0  0
   -4.5694   15.2193    0.6099 H   0  0  0  0  0  0  0  0  0  0  0  0
   -6.6250   13.1527    0.9991 H   0  0  0  0  0  0  0  0  0  0  0  0
   -8.0882   14.0131    0.4830 H   0  0  0  0  0  0  0  0  0  0  0  0
   -7.7101   12.4206   -0.1946 H   0  0  0  0  0  0  0  0  0  0  0  0
   -3.3852   15.6128   -2.9054 H   0  0  0  0  0  0  0  0  0  0  0  0
   -4.7770   15.8374   -1.8473 H   0  0  0  0  0  0  0  0  0  0  0  0
   -7.1683   14.2163   -1.8229 H   0  0  0  0  0  0  0  0  0  0  0  0
   -6.1062   14.9847   -0.6420 H   0  0  0  0  0  0  0  0  0  0  0  0
   -5.1706   13.9574   -3.4375 H   0  0  0  0  0  0  0  0  0  0  0  0
   -3.7101   13.1453   -2.8719 H   0  0  0  0  0  0  0  0  0  0  0  0
   -5.7283   12.1733   -1.8094 H   0  0  0  0  0  0  0  0  0  0  0  0
   -4.6768   12.9118   -0.5991 H   0  0  0  0  0  0  0  0  0  0  0  0
   -3.0664   14.9433    2.3541 H   0  0  0  0  0  0  0  0  0  0  0  0
    0.9194   14.3089   -1.1900 H   0  0  0  0  0  0  0  0  0  0  0  0
    1.0993   14.2572    0.5494 H   0  0  0  0  0  0  0  0  0  0  0  0
  1  3  1  0  0  0  0
  1  4  2  0  0  0  0
  2  3  2  0  0  0  0
  2 11  1  0  0  0  0
  3  7  1  0  0  0  0
  4  5  1  0  0  0  0
  4 12  1  0  0  0  0
  5 11  1  0  0  0  0
  5 13  2  0  0  0  0
  6  8  1  0  0  0  0
  7  9  1  0  0  0  0
  8 10  1  0  0  0  0
  9 10  1  0  0  0  0
  1 14  1  0  0  0  0
  2 15  1  0  0  0  0
  6 16  1  0  0  0  0
  6 17  1  0  0  0  0
  6 18  1  0  0  0  0
  7 19  1  0  0  0  0
  7 20  1  0  0  0  0
  8 21  1  0  0  0  0
  8 22  1  0  0  0  0
  9 23  1  0  0  0  0
  9 24  1  0  0  0  0
 10 25  1  0  0  0  0
 10 26  1  0  0  0  0
 11 27  1  0  0  0  0
 12 28  1  0  0  0  0
 12 29  1  0  0  0  0
M  END
> <HYBRID receptor title>
5S18(A) > WOY(A-201)

> <HYBRID receptor filename>
experiments/data/docking/5s18.oedu

> <HYBRID Chemgauss4 score>
-6.785933

> <HYBRID receptor title>
5S18(A) > WOY(A-201)

> <HYBRID receptor filename>
experiments/data/docking/5s18.oedu

> <Dock Type>
Hybrid

$$$$
MOL0339
  -OEChem-07032415493D

 19 19  0     0  0  0  0  0  0999 V2000
   -5.1389   14.7847    1.3226 C   0  0  0  0  0  0  0  0  0  0  0  0
   -5.3766   14.5557    0.0190 C   0  0  0  0  0  0  0  0  0  0  0  0
   -4.2443   14.4329   -0.9238 C   0  0  0  0  0  0  0  0  0  0  0  0
   -3.0085   14.5629   -0.3991 C   0  0  0  0  0  0  0  0  0  0  0  0
   -2.7326   14.8160    1.0393 C   0  0  0  0  0  0  0  0  0  0  0  0
   -6.7892   14.4249   -0.4788 C   0  0  0  0  0  0  0  0  0  0  0  0
   -3.8688   14.9110    1.8205 N   0  0  0  0  0  0  0  0  0  0  0  0
   -4.5276   14.1988   -2.2468 N   0  0  0  0  0  0  0  0  0  0  0  0
   -1.8857   14.4528   -1.2695 N   0  3  0  0  0  0  0  0  0  0  0  0
   -2.1183   14.2422   -2.4667 O   0  5  0  0  0  0  0  0  0  0  0  0
   -1.5904   14.9274    1.4751 O   0  0  0  0  0  0  0  0  0  0  0  0
   -0.7638   14.5753   -0.7619 O   0  0  0  0  0  0  0  0  0  0  0  0
   -7.6668   14.5678    0.5329 F   0  0  0  0  0  0  0  0  0  0  0  0
   -7.0622   15.3638   -1.4048 F   0  0  0  0  0  0  0  0  0  0  0  0
   -6.9883   13.2158   -1.0381 F   0  0  0  0  0  0  0  0  0  0  0  0
   -5.9300   14.8832    2.0567 H   0  0  0  0  0  0  0  0  0  0  0  0
   -3.7675   15.0832    2.8164 H   0  0  0  0  0  0  0  0  0  0  0  0
   -5.4800   14.1217   -2.5156 H   0  0  0  0  0  0  0  0  0  0  0  0
   -3.7691   14.1161   -2.8810 H   0  0  0  0  0  0  0  0  0  0  0  0
  1  2  2  0  0  0  0
  1  7  1  0  0  0  0
  2  3  1  0  0  0  0
  2  6  1  0  0  0  0
  3  4  2  0  0  0  0
  3  8  1  0  0  0  0
  4  5  1  0  0  0  0
  4  9  1  0  0  0  0
  5  7  1  0  0  0  0
  5 11  2  0  0  0  0
  6 13  1  0  0  0  0
  6 14  1  0  0  0  0
  6 15  1  0  0  0  0
  9 10  1  0  0  0  0
  9 12  2  0  0  0  0
  1 16  1  0  0  0  0
  7 17  1  0  0  0  0
  8 18  1  0  0  0  0
  8 19  1  0  0  0  0
M  CHG  2   9   1  10  -1
M  END
> <HYBRID receptor title>
5S18(A) > WOY(A-201)

> <HYBRID receptor filename>
experiments/data/docking/5s18.oedu

> <HYBRID Chemgauss4 score>
-6.785347

> <HYBRID receptor title>
5S18(A) > WOY(A-201)

> <HYBRID receptor filename>
experiments/data/docking/5s18.oedu

> <Dock Type>
Hybrid

$$$$
MOL0374
  -OEChem-07032415493D

 28 29  0     0  0  0  0  0  0999 V2000
   -1.7593   15.0430   -0.4015 C   0  0  0  0  0  0  0  0  0  0  0  0
   -0.8746   14.8938    1.6640 C   0  0  0  0  0  0  0  0  0  0  0  0
   -0.5500   14.9126    0.3252 C   0  0  0  0  0  0  0  0  0  0  0  0
   -2.7859   15.0995    0.5151 C   0  0  0  0  0  0  0  0  0  0  0  0
    1.0327   15.6011   -2.6429 C   0  0  0  0  0  0  0  0  0  0  0  0
    0.5095   13.2987   -2.2167 C   0  0  0  0  0  0  0  0  0  0  0  0
    0.7783   14.5137   -1.7196 C   0  0  0  0  0  0  0  0  0  0  0  0
    1.0087   15.4368   -3.9768 C   0  0  0  0  0  0  0  0  0  0  0  0
    0.7049   14.0641   -4.5160 C   0  0  0  0  0  0  0  0  0  0  0  0
    0.8310   14.8123   -0.2551 C   0  0  0  0  0  0  0  0  0  0  0  0
   -4.2421   15.2330    0.3243 C   0  0  0  0  0  0  0  0  0  0  0  0
   -2.2365   15.0080    1.7671 N   0  0  0  0  0  0  0  0  0  0  0  0
    0.4737   13.0798   -3.5689 N   0  0  0  0  0  0  0  0  0  0  0  0
    1.2386   16.4163   -4.8966 N   0  0  0  0  0  0  0  0  0  0  0  0
    0.6689   13.8516   -5.7266 O   0  0  0  0  0  0  0  0  0  0  0  0
   -4.6365   15.3142   -0.9879 F   0  0  0  0  0  0  0  0  0  0  0  0
   -4.7657   16.3532    0.9177 F   0  0  0  0  0  0  0  0  0  0  0  0
   -4.9728   14.1899    0.8366 F   0  0  0  0  0  0  0  0  0  0  0  0
   -1.8711   15.0910   -1.4763 H   0  0  0  0  0  0  0  0  0  0  0  0
   -0.2622   14.8093    2.5511 H   0  0  0  0  0  0  0  0  0  0  0  0
    1.2489   16.5777   -2.2180 H   0  0  0  0  0  0  0  0  0  0  0  0
    0.3085   12.4342   -1.5961 H   0  0  0  0  0  0  0  0  0  0  0  0
    1.3994   14.0191    0.2379 H   0  0  0  0  0  0  0  0  0  0  0  0
    1.3772   15.7491   -0.1138 H   0  0  0  0  0  0  0  0  0  0  0  0
   -2.7539   15.0217    2.6355 H   0  0  0  0  0  0  0  0  0  0  0  0
    0.2654   12.1409   -3.8960 H   0  0  0  0  0  0  0  0  0  0  0  0
    1.4432   17.3374   -4.5738 H   0  0  0  0  0  0  0  0  0  0  0  0
    1.1956   16.1831   -5.8649 H   0  0  0  0  0  0  0  0  0  0  0  0
  1  3  1  0  0  0  0
  1  4  2  0  0  0  0
  2  3  2  0  0  0  0
  2 12  1  0  0  0  0
  3 10  1  0  0  0  0
  4 11  1  0  0  0  0
  4 12  1  0  0  0  0
  5  7  1  0  0  0  0
  5  8  2  0  0  0  0
  6  7  2  0  0  0  0
  6 13  1  0  0  0  0
  7 10  1  0  0  0  0
  8  9  1  0  0  0  0
  8 14  1  0  0  0  0
  9 13  1  0  0  0  0
  9 15  2  0  0  0  0
 11 16  1  0  0  0  0
 11 17  1  0  0  0  0
 11 18  1  0  0  0  0
  1 19  1  0  0  0  0
  2 20  1  0  0  0  0
  5 21  1  0  0  0  0
  6 22  1  0  0  0  0
 10 23  1  0  0  0  0
 10 24  1  0  0  0  0
 12 25  1  0  0  0  0
 13 26  1  0  0  0  0
 14 27  1  0  0  0  0
 14 28  1  0  0  0  0
M  END
> <HYBRID receptor title>
5S18(A) > WOY(A-201)

> <HYBRID receptor filename>
experiments/data/docking/5s18.oedu

> <HYBRID Chemgauss4 score>
-6.782764

> <HYBRID receptor title>
5S18(A) > WOY(A-201)

> <HYBRID receptor filename>
experiments/data/docking/5s18.oedu

> <Dock Type>
Hybrid

$$$$
MOL0238
  -OEChem-07032415493D

 17 17  0     0  0  0  0  0  0999 V2000
   -4.0121   14.8754    0.4856 C   0  0  0  0  0  0  0  0  0  0  0  0
   -3.5763   14.7574   -0.7759 C   0  0  0  0  0  0  0  0  0  0  0  0
   -1.2580   14.5464   -0.0020 C   0  0  0  0  0  0  0  0  0  0  0  0
   -2.1566   14.5896   -0.9997 C   0  0  0  0  0  0  0  0  0  0  0  0
   -1.7693   14.6806    1.4080 C   0  0  0  0  0  0  0  0  0  0  0  0
   -4.4824   14.7898   -1.9651 C   0  0  0  0  0  0  0  0  0  0  0  0
   -3.1393   14.8387    1.5423 N   0  0  0  0  0  0  0  0  0  0  0  0
    0.0874   14.3911   -0.1525 N   0  0  0  0  0  0  0  0  0  0  0  0
   -1.0004   14.6493    2.3673 O   0  0  0  0  0  0  0  0  0  0  0  0
   -1.7361   14.4731   -2.2792 F   0  0  0  0  0  0  0  0  0  0  0  0
   -5.7691   14.9512   -1.5904 F   0  0  0  0  0  0  0  0  0  0  0  0
   -4.1649   15.8058   -2.7948 F   0  0  0  0  0  0  0  0  0  0  0  0
   -4.3995   13.6417   -2.6702 F   0  0  0  0  0  0  0  0  0  0  0  0
   -5.0560   15.0041    0.7441 H   0  0  0  0  0  0  0  0  0  0  0  0
   -3.5197   14.9331    2.4796 H   0  0  0  0  0  0  0  0  0  0  0  0
    0.4590   14.2998   -1.0737 H   0  0  0  0  0  0  0  0  0  0  0  0
    0.6616   14.3733    0.6625 H   0  0  0  0  0  0  0  0  0  0  0  0
  1  2  2  0  0  0  0
  1  7  1  0  0  0  0
  2  4  1  0  0  0  0
  2  6  1  0  0  0  0
  3  4  2  0  0  0  0
  3  5  1  0  0  0  0
  3  8  1  0  0  0  0
  4 10  1  0  0  0  0
  5  7  1  0  0  0  0
  5  9  2  0  0  0  0
  6 11  1  0  0  0  0
  6 12  1  0  0  0  0
  6 13  1  0  0  0  0
  1 14  1  0  0  0  0
  7 15  1  0  0  0  0
  8 16  1  0  0  0  0
  8 17  1  0  0  0  0
M  END
> <HYBRID receptor title>
5S18(A) > WOY(A-201)

> <HYBRID receptor filename>
experiments/data/docking/5s18.oedu

> <HYBRID Chemgauss4 score>
-6.782732

> <HYBRID receptor title>
5S18(A) > WOY(A-201)

> <HYBRID receptor filename>
experiments/data/docking/5s18.oedu

> <Dock Type>
Hybrid

$$$$
MOL0254
  -OEChem-07032415493D

 14 14  0     0  0  0  0  0  0999 V2000
   -3.5886   14.7326   -1.0879 C   0  0  0  0  0  0  0  0  0  0  0  0
   -5.0839   14.7814    0.7890 C   0  0  0  0  0  0  0  0  0  0  0  0
   -2.4990   14.9067   -0.3191 C   0  0  0  0  0  0  0  0  0  0  0  0
   -4.9284   14.6650   -0.5376 C   0  0  0  0  0  0  0  0  0  0  0  0
   -2.6943   15.0353    1.1674 C   0  0  0  0  0  0  0  0  0  0  0  0
   -4.0027   14.9604    1.6138 N   0  0  0  0  0  0  0  0  0  0  0  0
   -1.2159   14.9783   -0.7742 N   0  0  0  0  0  0  0  0  0  0  0  0
   -1.7366   15.1963    1.9217 O   0  0  0  0  0  0  0  0  0  0  0  0
   -6.5567   14.3960   -1.7744 I   0  0  0  0  0  0  0  0  0  0  0  0
   -3.4750   14.6369   -2.1646 H   0  0  0  0  0  0  0  0  0  0  0  0
   -6.0435   14.7436    1.2909 H   0  0  0  0  0  0  0  0  0  0  0  0
   -4.1721   15.0430    2.6120 H   0  0  0  0  0  0  0  0  0  0  0  0
   -1.0507   14.8971   -1.7543 H   0  0  0  0  0  0  0  0  0  0  0  0
   -0.4807   15.1097   -0.1140 H   0  0  0  0  0  0  0  0  0  0  0  0
  1  3  2  0  0  0  0
  1  4  1  0  0  0  0
  2  4  2  0  0  0  0
  2  6  1  0  0  0  0
  3  5  1  0  0  0  0
  3  7  1  0  0  0  0
  4  9  1  0  0  0  0
  5  6  1  0  0  0  0
  5  8  2  0  0  0  0
  1 10  1  0  0  0  0
  2 11  1  0  0  0  0
  6 12  1  0  0  0  0
  7 13  1  0  0  0  0
  7 14  1  0  0  0  0
M  END
> <HYBRID receptor title>
5S18(A) > WOY(A-201)

> <HYBRID receptor filename>
experiments/data/docking/5s18.oedu

> <HYBRID Chemgauss4 score>
-6.779500

> <HYBRID receptor title>
5S18(A) > WOY(A-201)

> <HYBRID receptor filename>
experiments/data/docking/5s18.oedu

> <Dock Type>
Hybrid

$$$$
MOL0348
  -OEChem-07032415493D

 16 16  0     0  0  0  0  0  0999 V2000
   -3.6396   14.5249   -0.9275 C   0  0  0  0  0  0  0  0  0  0  0  0
   -4.8045   14.8340    1.1497 C   0  0  0  0  0  0  0  0  0  0  0  0
   -4.8732   14.6141   -0.1714 C   0  0  0  0  0  0  0  0  0  0  0  0
   -2.4430   14.6572   -0.3368 C   0  0  0  0  0  0  0  0  0  0  0  0
   -2.3735   14.9031    1.1384 C   0  0  0  0  0  0  0  0  0  0  0  0
   -6.1610   14.4539   -0.9147 C   0  0  0  0  0  0  0  0  0  0  0  0
   -3.5967   14.9741    1.7862 N   0  0  0  0  0  0  0  0  0  0  0  0
   -1.2907   15.0286    1.7050 O   0  0  0  0  0  0  0  0  0  0  0  0
   -1.2703   14.5730   -1.0530 O   0  0  0  0  0  0  0  0  0  0  0  0
   -5.9393   14.2431   -2.2293 F   0  0  0  0  0  0  0  0  0  0  0  0
   -6.8707   13.4071   -0.4439 F   0  0  0  0  0  0  0  0  0  0  0  0
   -6.9292   15.5576   -0.7981 F   0  0  0  0  0  0  0  0  0  0  0  0
   -3.7067   14.3465   -1.9964 H   0  0  0  0  0  0  0  0  0  0  0  0
   -5.6791   14.9133    1.7837 H   0  0  0  0  0  0  0  0  0  0  0  0
   -3.6108   15.1389    2.7885 H   0  0  0  0  0  0  0  0  0  0  0  0
   -0.5153   14.6919   -0.4656 H   0  0  0  0  0  0  0  0  0  0  0  0
  1  3  1  0  0  0  0
  1  4  2  0  0  0  0
  2  3  2  0  0  0  0
  2  7  1  0  0  0  0
  3  6  1  0  0  0  0
  4  5  1  0  0  0  0
  4  9  1  0  0  0  0
  5  7  1  0  0  0  0
  5  8  2  0  0  0  0
  6 10  1  0  0  0  0
  6 11  1  0  0  0  0
  6 12  1  0  0  0  0
  1 13  1  0  0  0  0
  2 14  1  0  0  0  0
  7 15  1  0  0  0  0
  9 16  1  0  0  0  0
M  END
> <HYBRID receptor title>
5S18(A) > WOY(A-201)

> <HYBRID receptor filename>
experiments/data/docking/5s18.oedu

> <HYBRID Chemgauss4 score>
-6.777112

> <HYBRID receptor title>
5S18(A) > WOY(A-201)

> <HYBRID receptor filename>
experiments/data/docking/5s18.oedu

> <Dock Type>
Hybrid

$$$$
MOL0033
  -OEChem-07032415493D

 23 23  0     0  0  0  0  0  0999 V2000
   -3.3762   14.4321   -0.9966 C   0  0  0  0  0  0  0  0  0  0  0  0
   -4.7115   14.6357    0.9940 C   0  0  0  0  0  0  0  0  0  0  0  0
   -4.6529   14.4350   -0.3265 C   0  0  0  0  0  0  0  0  0  0  0  0
   -2.2236   14.6274   -0.3318 C   0  0  0  0  0  0  0  0  0  0  0  0
   -2.2938   14.8541    1.1575 C   0  0  0  0  0  0  0  0  0  0  0  0
   -5.9018   14.2216   -1.0574 C   0  0  0  0  0  0  0  0  0  0  0  0
   -6.1319   12.5542   -3.3498 C   0  0  0  0  0  0  0  0  0  0  0  0
   -6.5252   14.0158   -3.3229 C   0  0  0  0  0  0  0  0  0  0  0  0
   -3.5631   14.8398    1.7155 N   0  0  0  0  0  0  0  0  0  0  0  0
   -0.9813   14.6389   -0.8926 N   0  0  0  0  0  0  0  0  0  0  0  0
   -1.2735   15.0387    1.8188 O   0  0  0  0  0  0  0  0  0  0  0  0
   -6.8938   13.7031   -0.5678 O   0  0  0  0  0  0  0  0  0  0  0  0
   -5.7518   14.6887   -2.3234 O   0  0  0  0  0  0  0  0  0  0  0  0
   -3.3680   14.2656   -2.0700 H   0  0  0  0  0  0  0  0  0  0  0  0
   -5.6317   14.6513    1.5654 H   0  0  0  0  0  0  0  0  0  0  0  0
   -5.0718   12.4395   -3.5928 H   0  0  0  0  0  0  0  0  0  0  0  0
   -6.3252   12.0848   -2.3798 H   0  0  0  0  0  0  0  0  0  0  0  0
   -6.7252   12.0091   -4.0909 H   0  0  0  0  0  0  0  0  0  0  0  0
   -7.5862   14.1236   -3.0794 H   0  0  0  0  0  0  0  0  0  0  0  0
   -6.3307   14.4841   -4.2929 H   0  0  0  0  0  0  0  0  0  0  0  0
   -3.6583   14.9881    2.7159 H   0  0  0  0  0  0  0  0  0  0  0  0
   -0.8986   14.4923   -1.8757 H   0  0  0  0  0  0  0  0  0  0  0  0
   -0.1918   14.7935   -0.3039 H   0  0  0  0  0  0  0  0  0  0  0  0
  1  3  1  0  0  0  0
  1  4  2  0  0  0  0
  2  3  2  0  0  0  0
  2  9  1  0  0  0  0
  3  6  1  0  0  0  0
  4  5  1  0  0  0  0
  4 10  1  0  0  0  0
  5  9  1  0  0  0  0
  5 11  2  0  0  0  0
  6 12  2  0  0  0  0
  6 13  1  0  0  0  0
  7  8  1  0  0  0  0
  8 13  1  0  0  0  0
  1 14  1  0  0  0  0
  2 15  1  0  0  0  0
  7 16  1  0  0  0  0
  7 17  1  0  0  0  0
  7 18  1  0  0  0  0
  8 19  1  0  0  0  0
  8 20  1  0  0  0  0
  9 21  1  0  0  0  0
 10 22  1  0  0  0  0
 10 23  1  0  0  0  0
M  END
> <HYBRID receptor title>
5S18(A) > WOY(A-201)

> <HYBRID receptor filename>
experiments/data/docking/5s18.oedu

> <HYBRID Chemgauss4 score>
-6.776368

> <HYBRID receptor title>
5S18(A) > WOY(A-201)

> <HYBRID receptor filename>
experiments/data/docking/5s18.oedu

> <Dock Type>
Hybrid

$$$$
MOL0021
  -OEChem-07032415493D

 29 29  0     0  0  0  0  0  0999 V2000
   -1.6085   14.8429   -1.2820 C   0  0  0  0  0  0  0  0  0  0  0  0
    0.7522   14.4248   -1.1889 C   0  0  0  0  0  0  0  0  0  0  0  0
   -0.3528   14.5391   -1.9382 C   0  0  0  0  0  0  0  0  0  0  0  0
   -1.7058   15.0144    0.0477 C   0  0  0  0  0  0  0  0  0  0  0  0
   -0.4530   14.8819    0.8724 C   0  0  0  0  0  0  0  0  0  0  0  0
   -6.1866   14.3049   -0.8515 C   0  0  0  0  0  0  0  0  0  0  0  0
   -5.0073   13.3623    1.1472 C   0  0  0  0  0  0  0  0  0  0  0  0
   -4.1340   15.4594    0.0829 C   0  0  0  0  0  0  0  0  0  0  0  0
   -4.8294   14.1176   -0.1703 C   0  0  0  0  0  0  0  0  0  0  0  0
   -0.3628   14.3693   -3.4241 C   0  0  0  0  0  0  0  0  0  0  0  0
    0.7053   14.5904    0.1705 N   0  0  0  0  0  0  0  0  0  0  0  0
   -2.8540   15.3012    0.7242 N   0  0  0  0  0  0  0  0  0  0  0  0
   -0.4787   15.0278    2.0931 O   0  0  0  0  0  0  0  0  0  0  0  0
   -1.6056   14.5373   -3.9231 F   0  0  0  0  0  0  0  0  0  0  0  0
    0.4467   15.2667   -4.0245 F   0  0  0  0  0  0  0  0  0  0  0  0
    0.0587   13.1358   -3.7745 F   0  0  0  0  0  0  0  0  0  0  0  0
   -2.4919   14.9306   -1.9088 H   0  0  0  0  0  0  0  0  0  0  0  0
    1.7284   14.1999   -1.6006 H   0  0  0  0  0  0  0  0  0  0  0  0
   -6.8532   14.9096   -0.2269 H   0  0  0  0  0  0  0  0  0  0  0  0
   -6.0805   14.8088   -1.8181 H   0  0  0  0  0  0  0  0  0  0  0  0
   -6.6810   13.3426   -1.0229 H   0  0  0  0  0  0  0  0  0  0  0  0
   -5.6318   13.9330    1.8418 H   0  0  0  0  0  0  0  0  0  0  0  0
   -5.4942   12.3961    0.9787 H   0  0  0  0  0  0  0  0  0  0  0  0
   -4.0430   13.1763    1.6325 H   0  0  0  0  0  0  0  0  0  0  0  0
   -3.9712   16.0081   -0.8507 H   0  0  0  0  0  0  0  0  0  0  0  0
   -4.7388   16.0891    0.7439 H   0  0  0  0  0  0  0  0  0  0  0  0
   -4.1990   13.5083   -0.8310 H   0  0  0  0  0  0  0  0  0  0  0  0
    1.5703   14.4937    0.6943 H   0  0  0  0  0  0  0  0  0  0  0  0
   -2.7985   15.4041    1.7238 H   0  0  0  0  0  0  0  0  0  0  0  0
  1  3  1  0  0  0  0
  1  4  2  0  0  0  0
  2  3  2  0  0  0  0
  2 11  1  0  0  0  0
  3 10  1  0  0  0  0
  4  5  1  0  0  0  0
  4 12  1  0  0  0  0
  5 11  1  0  0  0  0
  5 13  2  0  0  0  0
  6  9  1  0  0  0  0
  7  9  1  0  0  0  0
  8  9  1  0  0  0  0
  8 12  1  0  0  0  0
 10 14  1  0  0  0  0
 10 15  1  0  0  0  0
 10 16  1  0  0  0  0
  1 17  1  0  0  0  0
  2 18  1  0  0  0  0
  6 19  1  0  0  0  0
  6 20  1  0  0  0  0
  6 21  1  0  0  0  0
  7 22  1  0  0  0  0
  7 23  1  0  0  0  0
  7 24  1  0  0  0  0
  8 25  1  0  0  0  0
  8 26  1  0  0  0  0
  9 27  1  0  0  0  0
 11 28  1  0  0  0  0
 12 29  1  0  0  0  0
M  END
> <HYBRID receptor title>
5S18(A) > WOY(A-201)

> <HYBRID receptor filename>
experiments/data/docking/5s18.oedu

> <HYBRID Chemgauss4 score>
-6.774968

> <HYBRID receptor title>
5S18(A) > WOY(A-201)

> <HYBRID receptor filename>
experiments/data/docking/5s18.oedu

> <Dock Type>
Hybrid

$$$$
MOL0294
  -OEChem-07032415493D

 28 28  0     0  0  0  0  0  0999 V2000
   -2.2198   14.4391   -1.4362 C   0  0  0  0  0  0  0  0  0  0  0  0
   -1.2588   14.4398   -2.1560 C   0  0  0  0  0  0  0  0  0  0  0  0
   -4.6540   14.0859   -1.1171 C   0  0  0  0  0  0  0  0  0  0  0  0
   -3.2512   14.7616    0.7104 C   0  0  0  0  0  0  0  0  0  0  0  0
   -3.3531   14.4387   -0.5870 C   0  0  0  0  0  0  0  0  0  0  0  0
   -5.7634   14.0704   -0.3570 C   0  0  0  0  0  0  0  0  0  0  0  0
   -5.6304   14.4358    1.0985 C   0  0  0  0  0  0  0  0  0  0  0  0
    0.8417   13.2653   -2.6720 C   0  0  0  0  0  0  0  0  0  0  0  0
    0.6900   15.7609   -2.8721 C   0  0  0  0  0  0  0  0  0  0  0  0
   -0.5295   14.2955   -4.5017 C   0  0  0  0  0  0  0  0  0  0  0  0
   -0.0742   14.4404   -3.0431 C   0  0  0  0  0  0  0  0  0  0  0  0
   -4.3531   14.7601    1.5267 N   0  0  0  0  0  0  0  0  0  0  0  0
   -7.0143   13.7490   -0.7933 N   0  0  0  0  0  0  0  0  0  0  0  0
   -6.6087   14.4399    1.8436 O   0  0  0  0  0  0  0  0  0  0  0  0
   -4.7157   13.8272   -2.1712 H   0  0  0  0  0  0  0  0  0  0  0  0
   -2.3179   15.0374    1.1873 H   0  0  0  0  0  0  0  0  0  0  0  0
    1.7317   13.2364   -3.3121 H   0  0  0  0  0  0  0  0  0  0  0  0
    0.3253   12.3049   -2.7897 H   0  0  0  0  0  0  0  0  0  0  0  0
    1.1792   13.3385   -1.6327 H   0  0  0  0  0  0  0  0  0  0  0  0
    1.5751   15.7931   -3.5170 H   0  0  0  0  0  0  0  0  0  0  0  0
    0.0604   16.6227   -3.1256 H   0  0  0  0  0  0  0  0  0  0  0  0
    1.0258   15.8964   -1.8370 H   0  0  0  0  0  0  0  0  0  0  0  0
    0.3259   14.2921   -5.1891 H   0  0  0  0  0  0  0  0  0  0  0  0
   -1.0833   13.3618   -4.6541 H   0  0  0  0  0  0  0  0  0  0  0  0
   -1.1827   15.1240   -4.7998 H   0  0  0  0  0  0  0  0  0  0  0  0
   -4.2255   15.0115    2.5025 H   0  0  0  0  0  0  0  0  0  0  0  0
   -7.1380   13.5021   -1.7515 H   0  0  0  0  0  0  0  0  0  0  0  0
   -7.7685   13.7702   -0.1417 H   0  0  0  0  0  0  0  0  0  0  0  0
  1  2  3  0  0  0  0
  1  5  1  0  0  0  0
  2 11  1  0  0  0  0
  3  5  1  0  0  0  0
  3  6  2  0  0  0  0
  4  5  2  0  0  0  0
  4 12  1  0  0  0  0
  6  7  1  0  0  0  0
  6 13  1  0  0  0  0
  7 12  1  0  0  0  0
  7 14  2  0  0  0  0
  8 11  1  0  0  0  0
  9 11  1  0  0  0  0
 10 11  1  0  0  0  0
  3 15  1  0  0  0  0
  4 16  1  0  0  0  0
  8 17  1  0  0  0  0
  8 18  1  0  0  0  0
  8 19  1  0  0  0  0
  9 20  1  0  0  0  0
  9 21  1  0  0  0  0
  9 22  1  0  0  0  0
 10 23  1  0  0  0  0
 10 24  1  0  0  0  0
 10 25  1  0  0  0  0
 12 26  1  0  0  0  0
 13 27  1  0  0  0  0
 13 28  1  0  0  0  0
M  END
> <HYBRID receptor title>
5S18(A) > WOY(A-201)

> <HYBRID receptor filename>
experiments/data/docking/5s18.oedu

> <HYBRID Chemgauss4 score>
-6.771249

> <HYBRID receptor title>
5S18(A) > WOY(A-201)

> <HYBRID receptor filename>
experiments/data/docking/5s18.oedu

> <Dock Type>
Hybrid

$$$$
MOL0026
  -OEChem-07032415493D

 20 20  0     0  0  0  0  0  0999 V2000
   -1.2933   14.8432   -0.9344 C   0  0  0  0  0  0  0  0  0  0  0  0
   -2.7458   14.8774   -0.8717 C   0  0  0  0  0  0  0  0  0  0  0  0
   -0.5108   14.8006    0.1553 C   0  0  0  0  0  0  0  0  0  0  0  0
   -3.3439   14.8586    0.3371 C   0  0  0  0  0  0  0  0  0  0  0  0
   -1.1832   14.7873    1.4953 C   0  0  0  0  0  0  0  0  0  0  0  0
   -3.4332   14.9451   -2.2050 C   0  0  0  0  0  0  0  0  0  0  0  0
   -4.8221   14.8687    0.5966 C   0  0  0  0  0  0  0  0  0  0  0  0
   -2.5660   14.8156    1.4784 N   0  0  0  0  0  0  0  0  0  0  0  0
    0.8516   14.7677    0.1513 N   0  0  0  0  0  0  0  0  0  0  0  0
   -0.5265   14.7521    2.5346 O   0  0  0  0  0  0  0  0  0  0  0  0
   -5.5121   14.9000   -0.5608 F   0  0  0  0  0  0  0  0  0  0  0  0
   -5.2015   13.7694    1.2775 F   0  0  0  0  0  0  0  0  0  0  0  0
   -5.1749   15.9491    1.3212 F   0  0  0  0  0  0  0  0  0  0  0  0
   -0.8376   14.8526   -1.9216 H   0  0  0  0  0  0  0  0  0  0  0  0
   -3.6243   13.9369   -2.5642 H   0  0  0  0  0  0  0  0  0  0  0  0
   -2.7987   15.4716   -2.9136 H   0  0  0  0  0  0  0  0  0  0  0  0
   -4.3736   15.4806   -2.0997 H   0  0  0  0  0  0  0  0  0  0  0  0
   -3.0493   14.8040    2.3724 H   0  0  0  0  0  0  0  0  0  0  0  0
    1.3283   14.7753   -0.7248 H   0  0  0  0  0  0  0  0  0  0  0  0
    1.3325   14.7372    1.0242 H   0  0  0  0  0  0  0  0  0  0  0  0
  1  2  1  0  0  0  0
  1  3  2  0  0  0  0
  2  4  2  0  0  0  0
  2  6  1  0  0  0  0
  3  5  1  0  0  0  0
  3  9  1  0  0  0  0
  4  7  1  0  0  0  0
  4  8  1  0  0  0  0
  5  8  1  0  0  0  0
  5 10  2  0  0  0  0
  7 11  1  0  0  0  0
  7 12  1  0  0  0  0
  7 13  1  0  0  0  0
  1 14  1  0  0  0  0
  6 15  1  0  0  0  0
  6 16  1  0  0  0  0
  6 17  1  0  0  0  0
  8 18  1  0  0  0  0
  9 19  1  0  0  0  0
  9 20  1  0  0  0  0
M  END
> <HYBRID receptor title>
5S18(A) > WOY(A-201)

> <HYBRID receptor filename>
experiments/data/docking/5s18.oedu

> <HYBRID Chemgauss4 score>
-6.771049

> <HYBRID receptor title>
5S18(A) > WOY(A-201)

> <HYBRID receptor filename>
experiments/data/docking/5s18.oedu

> <Dock Type>
Hybrid

$$$$
MOL0103
  -OEChem-07032415493D

 17 17  0     0  0  0  0  0  0999 V2000
   -2.1094   15.0930   -0.2383 C   0  0  0  0  0  0  0  0  0  0  0  0
   -4.6538   14.6375    0.7758 C   0  0  0  0  0  0  0  0  0  0  0  0
   -4.4913   14.7516   -0.5534 C   0  0  0  0  0  0  0  0  0  0  0  0
   -3.1466   14.9921   -1.0934 C   0  0  0  0  0  0  0  0  0  0  0  0
   -2.2989   14.9653    1.2335 C   0  0  0  0  0  0  0  0  0  0  0  0
   -5.6651   14.6362   -1.4830 C   0  0  0  0  0  0  0  0  0  0  0  0
   -3.5981   14.7396    1.6423 N   0  0  0  0  0  0  0  0  0  0  0  0
   -2.9701   15.1093   -2.4475 N   0  0  0  0  0  0  0  0  0  0  0  0
   -1.3404   15.0602    1.9956 O   0  0  0  0  0  0  0  0  0  0  0  0
   -6.8021   14.4173   -0.7938 F   0  0  0  0  0  0  0  0  0  0  0  0
   -5.8243   15.7642   -2.2024 F   0  0  0  0  0  0  0  0  0  0  0  0
   -5.4956   13.6134   -2.3440 F   0  0  0  0  0  0  0  0  0  0  0  0
   -1.0969   15.2704   -0.5872 H   0  0  0  0  0  0  0  0  0  0  0  0
   -5.6164   14.4599    1.2403 H   0  0  0  0  0  0  0  0  0  0  0  0
   -3.7916   14.6434    2.6347 H   0  0  0  0  0  0  0  0  0  0  0  0
   -2.0517   15.2720   -2.7906 H   0  0  0  0  0  0  0  0  0  0  0  0
   -3.7666   15.0271   -3.0353 H   0  0  0  0  0  0  0  0  0  0  0  0
  1  4  2  0  0  0  0
  1  5  1  0  0  0  0
  2  3  2  0  0  0  0
  2  7  1  0  0  0  0
  3  4  1  0  0  0  0
  3  6  1  0  0  0  0
  4  8  1  0  0  0  0
  5  7  1  0  0  0  0
  5  9  2  0  0  0  0
  6 10  1  0  0  0  0
  6 11  1  0  0  0  0
  6 12  1  0  0  0  0
  1 13  1  0  0  0  0
  2 14  1  0  0  0  0
  7 15  1  0  0  0  0
  8 16  1  0  0  0  0
  8 17  1  0  0  0  0
M  END
> <HYBRID receptor title>
5S18(A) > WOY(A-201)

> <HYBRID receptor filename>
experiments/data/docking/5s18.oedu

> <HYBRID Chemgauss4 score>
-6.766895

> <HYBRID receptor title>
5S18(A) > WOY(A-201)

> <HYBRID receptor filename>
experiments/data/docking/5s18.oedu

> <Dock Type>
Hybrid

$$$$
MOL0215
  -OEChem-07032415493D

 23 23  0     0  0  0  0  0  0999 V2000
   -3.0008   14.9868   -1.1784 C   0  0  0  0  0  0  0  0  0  0  0  0
   -4.6523   15.0513    0.5610 C   0  0  0  0  0  0  0  0  0  0  0  0
   -4.3841   15.0533   -0.7520 C   0  0  0  0  0  0  0  0  0  0  0  0
   -1.9787   14.9228   -0.3076 C   0  0  0  0  0  0  0  0  0  0  0  0
   -2.3005   14.9219    1.1634 C   0  0  0  0  0  0  0  0  0  0  0  0
    0.3324   14.1918    0.1610 C   0  0  0  0  0  0  0  0  0  0  0  0
   -5.4398   15.1209   -1.8091 C   0  0  0  0  0  0  0  0  0  0  0  0
   -5.9149   13.7494   -2.2291 C   0  0  0  0  0  0  0  0  0  0  0  0
   -3.6455   14.9878    1.4884 N   0  0  0  0  0  0  0  0  0  0  0  0
   -0.6592   14.8584   -0.6435 N   0  0  0  0  0  0  0  0  0  0  0  0
   -1.4085   14.8651    2.0078 O   0  0  0  0  0  0  0  0  0  0  0  0
   -4.9099   13.0097   -2.7448 F   0  0  0  0  0  0  0  0  0  0  0  0
   -6.8977   13.8240   -3.1511 F   0  0  0  0  0  0  0  0  0  0  0  0
   -6.4073   13.0797   -1.1619 F   0  0  0  0  0  0  0  0  0  0  0  0
   -2.8064   14.9900   -2.2475 H   0  0  0  0  0  0  0  0  0  0  0  0
   -5.6572   15.0987    0.9620 H   0  0  0  0  0  0  0  0  0  0  0  0
   -0.1248   13.7618    1.0569 H   0  0  0  0  0  0  0  0  0  0  0  0
    0.8059   13.3890   -0.4111 H   0  0  0  0  0  0  0  0  0  0  0  0
    1.1076   14.8994    0.4678 H   0  0  0  0  0  0  0  0  0  0  0  0
   -5.0343   15.6491   -2.6770 H   0  0  0  0  0  0  0  0  0  0  0  0
   -6.2810   15.7063   -1.4276 H   0  0  0  0  0  0  0  0  0  0  0  0
   -3.9004   14.9891    2.4717 H   0  0  0  0  0  0  0  0  0  0  0  0
   -0.3692   15.2992   -1.5005 H   0  0  0  0  0  0  0  0  0  0  0  0
  1  3  1  0  0  0  0
  1  4  2  0  0  0  0
  2  3  2  0  0  0  0
  2  9  1  0  0  0  0
  3  7  1  0  0  0  0
  4  5  1  0  0  0  0
  4 10  1  0  0  0  0
  5  9  1  0  0  0  0
  5 11  2  0  0  0  0
  6 10  1  0  0  0  0
  7  8  1  0  0  0  0
  8 12  1  0  0  0  0
  8 13  1  0  0  0  0
  8 14  1  0  0  0  0
  1 15  1  0  0  0  0
  2 16  1  0  0  0  0
  6 17  1  0  0  0  0
  6 18  1  0  0  0  0
  6 19  1  0  0  0  0
  7 20  1  0  0  0  0
  7 21  1  0  0  0  0
  9 22  1  0  0  0  0
 10 23  1  0  0  0  0
M  END
> <HYBRID receptor title>
5S18(A) > WOY(A-201)

> <HYBRID receptor filename>
experiments/data/docking/5s18.oedu

> <HYBRID Chemgauss4 score>
-6.765266

> <HYBRID receptor title>
5S18(A) > WOY(A-201)

> <HYBRID receptor filename>
experiments/data/docking/5s18.oedu

> <Dock Type>
Hybrid

$$$$
MOL0024
  -OEChem-07032415493D

 17 17  0     0  0  0  0  0  0999 V2000
   -3.0081   14.7849   -1.0815 C   0  0  0  0  0  0  0  0  0  0  0  0
   -4.5903   14.7521    0.7218 C   0  0  0  0  0  0  0  0  0  0  0  0
   -4.3729   14.7150   -0.5999 C   0  0  0  0  0  0  0  0  0  0  0  0
   -1.9540   14.8851   -0.2534 C   0  0  0  0  0  0  0  0  0  0  0  0
   -2.2188   14.9254    1.2284 C   0  0  0  0  0  0  0  0  0  0  0  0
   -5.4677   14.6048   -1.6129 C   0  0  0  0  0  0  0  0  0  0  0  0
   -3.5494   14.8538    1.6072 N   0  0  0  0  0  0  0  0  0  0  0  0
   -0.6493   14.9546   -0.6420 N   0  0  0  0  0  0  0  0  0  0  0  0
   -1.2956   15.0163    2.0356 O   0  0  0  0  0  0  0  0  0  0  0  0
   -5.3240   13.4742   -2.3432 F   0  0  0  0  0  0  0  0  0  0  0  0
   -6.6715   14.5298   -1.0006 F   0  0  0  0  0  0  0  0  0  0  0  0
   -2.8550   14.7536   -2.1569 H   0  0  0  0  0  0  0  0  0  0  0  0
   -5.5783   14.7051    1.1628 H   0  0  0  0  0  0  0  0  0  0  0  0
   -5.4580   15.4641   -2.2787 H   0  0  0  0  0  0  0  0  0  0  0  0
   -3.7661   14.8782    2.5994 H   0  0  0  0  0  0  0  0  0  0  0  0
   -0.4382   14.9308   -1.6164 H   0  0  0  0  0  0  0  0  0  0  0  0
    0.0557   15.0273    0.0592 H   0  0  0  0  0  0  0  0  0  0  0  0
  1  3  1  0  0  0  0
  1  4  2  0  0  0  0
  2  3  2  0  0  0  0
  2  7  1  0  0  0  0
  3  6  1  0  0  0  0
  4  5  1  0  0  0  0
  4  8  1  0  0  0  0
  5  7  1  0  0  0  0
  5  9  2  0  0  0  0
  6 10  1  0  0  0  0
  6 11  1  0  0  0  0
  1 12  1  0  0  0  0
  2 13  1  0  0  0  0
  6 14  1  0  0  0  0
  7 15  1  0  0  0  0
  8 16  1  0  0  0  0
  8 17  1  0  0  0  0
M  END
> <HYBRID receptor title>
5S18(A) > WOY(A-201)

> <HYBRID receptor filename>
experiments/data/docking/5s18.oedu

> <HYBRID Chemgauss4 score>
-6.764548

> <HYBRID receptor title>
5S18(A) > WOY(A-201)

> <HYBRID receptor filename>
experiments/data/docking/5s18.oedu

> <Dock Type>
Hybrid

$$$$
MOL0409
  -OEChem-07032415493D

 21 22  0     0  0  0  0  0  0999 V2000
   -5.9591   14.5133   -2.7122 C   0  0  0  0  0  0  0  0  0  0  0  0
   -7.0003   15.4462   -1.0154 C   0  0  0  0  0  0  0  0  0  0  0  0
   -5.7793   14.9336   -1.3807 C   0  0  0  0  0  0  0  0  0  0  0  0
   -3.2958   14.9354   -1.1732 C   0  0  0  0  0  0  0  0  0  0  0  0
   -4.6914   14.7346    0.7661 C   0  0  0  0  0  0  0  0  0  0  0  0
   -4.6168   14.8646   -0.5690 C   0  0  0  0  0  0  0  0  0  0  0  0
   -2.1602   14.8742   -0.4560 C   0  0  0  0  0  0  0  0  0  0  0  0
   -2.2737   14.7270    1.0366 C   0  0  0  0  0  0  0  0  0  0  0  0
   -7.1963   14.7390   -3.1618 N   0  0  0  0  0  0  0  0  0  0  0  0
   -7.8056   15.3070   -2.1073 N   0  0  0  0  0  0  0  0  0  0  0  0
   -3.5617   14.6673    1.5396 N   0  0  0  0  0  0  0  0  0  0  0  0
   -0.8986   14.9352   -0.9690 N   0  0  0  0  0  0  0  0  0  0  0  0
   -1.2717   14.6656    1.7470 O   0  0  0  0  0  0  0  0  0  0  0  0
   -5.2430   14.0519   -3.3779 H   0  0  0  0  0  0  0  0  0  0  0  0
   -7.3647   15.8914   -0.0999 H   0  0  0  0  0  0  0  0  0  0  0  0
   -3.2466   15.0419   -2.2543 H   0  0  0  0  0  0  0  0  0  0  0  0
   -5.6285   14.6742    1.3076 H   0  0  0  0  0  0  0  0  0  0  0  0
   -8.7764   15.5773   -2.2031 H   0  0  0  0  0  0  0  0  0  0  0  0
   -3.6879   14.5691    2.5429 H   0  0  0  0  0  0  0  0  0  0  0  0
   -0.7874   15.0333   -1.9552 H   0  0  0  0  0  0  0  0  0  0  0  0
   -0.1245   14.8801   -0.3434 H   0  0  0  0  0  0  0  0  0  0  0  0
  1  3  1  0  0  0  0
  1  9  2  0  0  0  0
  2  3  2  0  0  0  0
  2 10  1  0  0  0  0
  3  6  1  0  0  0  0
  4  6  1  0  0  0  0
  4  7  2  0  0  0  0
  5  6  2  0  0  0  0
  5 11  1  0  0  0  0
  7  8  1  0  0  0  0
  7 12  1  0  0  0  0
  8 11  1  0  0  0  0
  8 13  2  0  0  0  0
  9 10  1  0  0  0  0
  1 14  1  0  0  0  0
  2 15  1  0  0  0  0
  4 16  1  0  0  0  0
  5 17  1  0  0  0  0
 10 18  1  0  0  0  0
 11 19  1  0  0  0  0
 12 20  1  0  0  0  0
 12 21  1  0  0  0  0
M  END
> <HYBRID receptor title>
5S18(A) > WOY(A-201)

> <HYBRID receptor filename>
experiments/data/docking/5s18.oedu

> <HYBRID Chemgauss4 score>
-6.760562

> <HYBRID receptor title>
5S18(A) > WOY(A-201)

> <HYBRID receptor filename>
experiments/data/docking/5s18.oedu

> <Dock Type>
Hybrid

$$$$
MOL0201
  -OEChem-07032415493D

 30 30  0     0  0  0  0  0  0999 V2000
   -3.2834   14.4388   -1.0136 C   0  0  0  0  0  0  0  0  0  0  0  0
   -4.8917   14.5803    0.7611 C   0  0  0  0  0  0  0  0  0  0  0  0
   -4.6546   14.4077   -0.5464 C   0  0  0  0  0  0  0  0  0  0  0  0
   -2.2423   14.6336   -0.1858 C   0  0  0  0  0  0  0  0  0  0  0  0
   -2.5293   14.8257    1.2798 C   0  0  0  0  0  0  0  0  0  0  0  0
   -6.6673   15.4084   -1.5254 C   0  0  0  0  0  0  0  0  0  0  0  0
   -6.5503   12.9359   -1.1781 C   0  0  0  0  0  0  0  0  0  0  0  0
   -5.1594   13.8313   -5.7029 C   0  0  0  0  0  0  0  0  0  0  0  0
   -5.1172   14.0769   -2.9728 C   0  0  0  0  0  0  0  0  0  0  0  0
   -5.7335   14.1833   -1.5575 C   0  0  0  0  0  0  0  0  0  0  0  0
   -3.8648   14.7825    1.6455 N   0  0  0  0  0  0  0  0  0  0  0  0
   -0.9326   14.6735   -0.5613 N   0  0  0  0  0  0  0  0  0  0  0  0
   -1.6188   15.0080    2.0860 O   0  0  0  0  0  0  0  0  0  0  0  0
   -6.3193   13.8149   -4.3185 S   0  0  0  0  0  0  0  0  0  0  0  0
   -3.1142   14.2970   -2.0777 H   0  0  0  0  0  0  0  0  0  0  0  0
   -5.8858   14.5710    1.1908 H   0  0  0  0  0  0  0  0  0  0  0  0
   -7.4836   15.3023   -2.2498 H   0  0  0  0  0  0  0  0  0  0  0  0
   -6.1236   16.3238   -1.7858 H   0  0  0  0  0  0  0  0  0  0  0  0
   -7.1135   15.5519   -0.5353 H   0  0  0  0  0  0  0  0  0  0  0  0
   -7.3515   12.7426   -1.9006 H   0  0  0  0  0  0  0  0  0  0  0  0
   -5.9248   12.0393   -1.1158 H   0  0  0  0  0  0  0  0  0  0  0  0
   -7.0123   13.0603   -0.1919 H   0  0  0  0  0  0  0  0  0  0  0  0
   -5.6992   13.6842   -6.6418 H   0  0  0  0  0  0  0  0  0  0  0  0
   -4.6367   14.7901   -5.7376 H   0  0  0  0  0  0  0  0  0  0  0  0
   -4.4269   13.0289   -5.5833 H   0  0  0  0  0  0  0  0  0  0  0  0
   -4.4121   13.2386   -3.0119 H   0  0  0  0  0  0  0  0  0  0  0  0
   -4.5536   14.9848   -3.2147 H   0  0  0  0  0  0  0  0  0  0  0  0
   -4.0963   14.9082    2.6266 H   0  0  0  0  0  0  0  0  0  0  0  0
   -0.7070   14.5502   -1.5249 H   0  0  0  0  0  0  0  0  0  0  0  0
   -0.2386   14.8248    0.1382 H   0  0  0  0  0  0  0  0  0  0  0  0
  1  3  1  0  0  0  0
  1  4  2  0  0  0  0
  2  3  2  0  0  0  0
  2 11  1  0  0  0  0
  3 10  1  0  0  0  0
  4  5  1  0  0  0  0
  4 12  1  0  0  0  0
  5 11  1  0  0  0  0
  5 13  2  0  0  0  0
  6 10  1  0  0  0  0
  7 10  1  0  0  0  0
  8 14  1  0  0  0  0
  9 10  1  0  0  0  0
  9 14  1  0  0  0  0
  1 15  1  0  0  0  0
  2 16  1  0  0  0  0
  6 17  1  0  0  0  0
  6 18  1  0  0  0  0
  6 19  1  0  0  0  0
  7 20  1  0  0  0  0
  7 21  1  0  0  0  0
  7 22  1  0  0  0  0
  8 23  1  0  0  0  0
  8 24  1  0  0  0  0
  8 25  1  0  0  0  0
  9 26  1  0  0  0  0
  9 27  1  0  0  0  0
 11 28  1  0  0  0  0
 12 29  1  0  0  0  0
 12 30  1  0  0  0  0
M  END
> <HYBRID receptor title>
5S18(A) > WOY(A-201)

> <HYBRID receptor filename>
experiments/data/docking/5s18.oedu

> <HYBRID Chemgauss4 score>
-6.755049

> <HYBRID receptor title>
5S18(A) > WOY(A-201)

> <HYBRID receptor filename>
experiments/data/docking/5s18.oedu

> <Dock Type>
Hybrid

$$$$
MOL0080
  -OEChem-07032415493D

 21 21  0     0  0  0  0  0  0999 V2000
   -3.3472   15.0585   -1.0476 C   0  0  0  0  0  0  0  0  0  0  0  0
   -4.8877   15.1749    0.7882 C   0  0  0  0  0  0  0  0  0  0  0  0
   -4.6985   15.1792   -0.5384 C   0  0  0  0  0  0  0  0  0  0  0  0
   -2.2787   14.9422   -0.2404 C   0  0  0  0  0  0  0  0  0  0  0  0
   -2.5119   14.9396    1.2472 C   0  0  0  0  0  0  0  0  0  0  0  0
   -6.0014   12.6452   -2.1763 C   0  0  0  0  0  0  0  0  0  0  0  0
   -5.8115   15.3025   -1.5297 C   0  0  0  0  0  0  0  0  0  0  0  0
   -3.8311   15.0591    1.6530 N   0  0  0  0  0  0  0  0  0  0  0  0
   -0.9855   14.8253   -0.6553 N   0  0  0  0  0  0  0  0  0  0  0  0
   -1.5743   14.8362    2.0361 O   0  0  0  0  0  0  0  0  0  0  0  0
   -6.9345   13.9144   -1.2865 S   0  0  0  0  0  0  0  0  0  0  0  0
   -3.2170   15.0646   -2.1265 H   0  0  0  0  0  0  0  0  0  0  0  0
   -5.8639   15.2606    1.2491 H   0  0  0  0  0  0  0  0  0  0  0  0
   -6.5397   11.6947   -2.1407 H   0  0  0  0  0  0  0  0  0  0  0  0
   -5.8712   12.9433   -3.2194 H   0  0  0  0  0  0  0  0  0  0  0  0
   -5.0185   12.5157   -1.7161 H   0  0  0  0  0  0  0  0  0  0  0  0
   -5.3941   15.2797   -2.5357 H   0  0  0  0  0  0  0  0  0  0  0  0
   -6.3336   16.2430   -1.3575 H   0  0  0  0  0  0  0  0  0  0  0  0
   -4.0265   15.0610    2.6498 H   0  0  0  0  0  0  0  0  0  0  0  0
   -0.7953   14.8239   -1.6343 H   0  0  0  0  0  0  0  0  0  0  0  0
   -0.2678   14.7448    0.0319 H   0  0  0  0  0  0  0  0  0  0  0  0
  1  3  1  0  0  0  0
  1  4  2  0  0  0  0
  2  3  2  0  0  0  0
  2  8  1  0  0  0  0
  3  7  1  0  0  0  0
  4  5  1  0  0  0  0
  4  9  1  0  0  0  0
  5  8  1  0  0  0  0
  5 10  2  0  0  0  0
  6 11  1  0  0  0  0
  7 11  1  0  0  0  0
  1 12  1  0  0  0  0
  2 13  1  0  0  0  0
  6 14  1  0  0  0  0
  6 15  1  0  0  0  0
  6 16  1  0  0  0  0
  7 17  1  0  0  0  0
  7 18  1  0  0  0  0
  8 19  1  0  0  0  0
  9 20  1  0  0  0  0
  9 21  1  0  0  0  0
M  END
> <HYBRID receptor title>
5S18(A) > WOY(A-201)

> <HYBRID receptor filename>
experiments/data/docking/5s18.oedu

> <HYBRID Chemgauss4 score>
-6.754436

> <HYBRID receptor title>
5S18(A) > WOY(A-201)

> <HYBRID receptor filename>
experiments/data/docking/5s18.oedu

> <Dock Type>
Hybrid

$$$$
MOL0315
  -OEChem-07032415493D

 21 22  0     0  0  0  0  0  0999 V2000
   -2.9100   14.8018   -0.7993 C   0  0  0  0  0  0  0  0  0  0  0  0
   -4.3561   14.8264    1.1150 C   0  0  0  0  0  0  0  0  0  0  0  0
   -4.2376   14.7819   -0.2190 C   0  0  0  0  0  0  0  0  0  0  0  0
   -1.7952   14.8629   -0.0508 C   0  0  0  0  0  0  0  0  0  0  0  0
   -1.9492   14.9124    1.4463 C   0  0  0  0  0  0  0  0  0  0  0  0
   -6.7604   14.6899   -0.6107 C   0  0  0  0  0  0  0  0  0  0  0  0
   -6.1738   13.4545   -1.2271 C   0  0  0  0  0  0  0  0  0  0  0  0
   -5.3746   14.7128   -1.1623 C   0  0  0  0  0  0  0  0  0  0  0  0
   -3.2502   14.8896    1.9217 N   0  0  0  0  0  0  0  0  0  0  0  0
   -0.5206   14.8845   -0.5337 N   0  0  0  0  0  0  0  0  0  0  0  0
   -0.9666   14.9696    2.1836 O   0  0  0  0  0  0  0  0  0  0  0  0
   -5.1803   15.3946   -2.3468 F   0  0  0  0  0  0  0  0  0  0  0  0
   -2.8335   14.7651   -1.8830 H   0  0  0  0  0  0  0  0  0  0  0  0
   -5.3107   14.8158    1.6266 H   0  0  0  0  0  0  0  0  0  0  0  0
   -7.5219   15.2190   -1.1712 H   0  0  0  0  0  0  0  0  0  0  0  0
   -6.9168   14.6910    0.4614 H   0  0  0  0  0  0  0  0  0  0  0  0
   -5.9366   12.6281   -0.5676 H   0  0  0  0  0  0  0  0  0  0  0  0
   -6.5405   13.1539   -2.2013 H   0  0  0  0  0  0  0  0  0  0  0  0
   -3.4035   14.9213    2.9253 H   0  0  0  0  0  0  0  0  0  0  0  0
   -0.3824   14.8532   -1.5209 H   0  0  0  0  0  0  0  0  0  0  0  0
    0.2358   14.9310    0.1139 H   0  0  0  0  0  0  0  0  0  0  0  0
  1  3  1  0  0  0  0
  1  4  2  0  0  0  0
  2  3  2  0  0  0  0
  2  9  1  0  0  0  0
  3  8  1  0  0  0  0
  4  5  1  0  0  0  0
  4 10  1  0  0  0  0
  5  9  1  0  0  0  0
  5 11  2  0  0  0  0
  6  7  1  0  0  0  0
  6  8  1  0  0  0  0
  7  8  1  0  0  0  0
  8 12  1  0  0  0  0
  1 13  1  0  0  0  0
  2 14  1  0  0  0  0
  6 15  1  0  0  0  0
  6 16  1  0  0  0  0
  7 17  1  0  0  0  0
  7 18  1  0  0  0  0
  9 19  1  0  0  0  0
 10 20  1  0  0  0  0
 10 21  1  0  0  0  0
M  END
> <HYBRID receptor title>
5S18(A) > WOY(A-201)

> <HYBRID receptor filename>
experiments/data/docking/5s18.oedu

> <HYBRID Chemgauss4 score>
-6.752038

> <HYBRID receptor title>
5S18(A) > WOY(A-201)

> <HYBRID receptor filename>
experiments/data/docking/5s18.oedu

> <Dock Type>
Hybrid

$$$$
MOL0328
  -OEChem-07032415493D

 19 20  0     0  0  0  0  0  0999 V2000
   -3.5724   14.7293    0.6531 C   0  0  0  0  0  0  0  0  0  0  0  0
   -6.0474   14.8695    1.1664 C   0  0  0  0  0  0  0  0  0  0  0  0
   -5.1794   13.8119   -0.8026 C   0  0  0  0  0  0  0  0  0  0  0  0
   -4.9198   14.4705    0.3392 C   0  0  0  0  0  0  0  0  0  0  0  0
   -7.3241   14.6058    0.8375 C   0  0  0  0  0  0  0  0  0  0  0  0
   -7.5853   13.8658   -0.4457 C   0  0  0  0  0  0  0  0  0  0  0  0
   -2.5083   14.9294   -0.0898 N   0  0  0  0  0  0  0  0  0  0  0  0
   -1.4712   15.1302    0.7939 N   0  0  0  0  0  0  0  0  0  0  0  0
   -1.8938   15.0544    2.0500 N   0  0  0  0  0  0  0  0  0  0  0  0
   -3.2073   14.8037    1.9595 N   0  0  0  0  0  0  0  0  0  0  0  0
   -6.4644   13.5197   -1.1802 N   0  0  0  0  0  0  0  0  0  0  0  0
   -8.4166   14.9550    1.5743 N   0  0  0  0  0  0  0  0  0  0  0  0
   -8.7310   13.5952   -0.8011 O   0  0  0  0  0  0  0  0  0  0  0  0
   -5.8215   15.4027    2.0866 H   0  0  0  0  0  0  0  0  0  0  0  0
   -4.4117   13.4718   -1.4890 H   0  0  0  0  0  0  0  0  0  0  0  0
   -3.7571   14.7000    2.8049 H   0  0  0  0  0  0  0  0  0  0  0  0
   -6.5918   13.0186   -2.0546 H   0  0  0  0  0  0  0  0  0  0  0  0
   -8.2788   15.4470    2.4307 H   0  0  0  0  0  0  0  0  0  0  0  0
   -9.3211   14.7085    1.2353 H   0  0  0  0  0  0  0  0  0  0  0  0
  1  4  1  0  0  0  0
  1  7  2  0  0  0  0
  1 10  1  0  0  0  0
  2  4  1  0  0  0  0
  2  5  2  0  0  0  0
  3  4  2  0  0  0  0
  3 11  1  0  0  0  0
  5  6  1  0  0  0  0
  5 12  1  0  0  0  0
  6 11  1  0  0  0  0
  6 13  2  0  0  0  0
  7  8  1  0  0  0  0
  8  9  2  0  0  0  0
  9 10  1  0  0  0  0
  2 14  1  0  0  0  0
  3 15  1  0  0  0  0
 10 16  1  0  0  0  0
 11 17  1  0  0  0  0
 12 18  1  0  0  0  0
 12 19  1  0  0  0  0
M  END
> <HYBRID receptor title>
5S18(A) > WOY(A-201)

> <HYBRID receptor filename>
experiments/data/docking/5s18.oedu

> <HYBRID Chemgauss4 score>
-6.750960

> <HYBRID receptor title>
5S18(A) > WOY(A-201)

> <HYBRID receptor filename>
experiments/data/docking/5s18.oedu

> <Dock Type>
Hybrid

$$$$
MOL0403
  -OEChem-07032415493D

 21 21  0     0  0  0  0  0  0999 V2000
   -2.7985   14.6864   -1.2190 C   0  0  0  0  0  0  0  0  0  0  0  0
   -4.3535   14.9882    0.5831 C   0  0  0  0  0  0  0  0  0  0  0  0
   -4.1566   14.8196   -0.7316 C   0  0  0  0  0  0  0  0  0  0  0  0
   -1.7310   14.7252   -0.4030 C   0  0  0  0  0  0  0  0  0  0  0  0
   -1.9729   14.9155    1.0710 C   0  0  0  0  0  0  0  0  0  0  0  0
   -4.8331   14.5679   -4.1962 C   0  0  0  0  0  0  0  0  0  0  0  0
   -4.8275   15.2803   -3.0637 C   0  0  0  0  0  0  0  0  0  0  0  0
   -5.2677   14.7610   -1.7309 C   0  0  0  0  0  0  0  0  0  0  0  0
   -3.2982   15.0348    1.4561 N   0  0  0  0  0  0  0  0  0  0  0  0
   -0.4317   14.6063   -0.7976 N   0  0  0  0  0  0  0  0  0  0  0  0
   -1.0367   14.9592    1.8670 O   0  0  0  0  0  0  0  0  0  0  0  0
   -6.3205   15.4969   -1.2785 F   0  0  0  0  0  0  0  0  0  0  0  0
   -5.7285   13.4823   -1.8162 F   0  0  0  0  0  0  0  0  0  0  0  0
   -2.6621   14.5510   -2.2886 H   0  0  0  0  0  0  0  0  0  0  0  0
   -5.3351   15.0957    1.0277 H   0  0  0  0  0  0  0  0  0  0  0  0
   -4.5088   15.0178   -5.1283 H   0  0  0  0  0  0  0  0  0  0  0  0
   -5.1561   13.5333   -4.2176 H   0  0  0  0  0  0  0  0  0  0  0  0
   -4.4982   16.3158   -3.1096 H   0  0  0  0  0  0  0  0  0  0  0  0
   -3.4996   15.1644    2.4433 H   0  0  0  0  0  0  0  0  0  0  0  0
   -0.2357   14.4794   -1.7672 H   0  0  0  0  0  0  0  0  0  0  0  0
    0.2845   14.6496   -0.1056 H   0  0  0  0  0  0  0  0  0  0  0  0
  1  3  1  0  0  0  0
  1  4  2  0  0  0  0
  2  3  2  0  0  0  0
  2  9  1  0  0  0  0
  3  8  1  0  0  0  0
  4  5  1  0  0  0  0
  4 10  1  0  0  0  0
  5  9  1  0  0  0  0
  5 11  2  0  0  0  0
  6  7  2  0  0  0  0
  7  8  1  0  0  0  0
  8 12  1  0  0  0  0
  8 13  1  0  0  0  0
  1 14  1  0  0  0  0
  2 15  1  0  0  0  0
  6 16  1  0  0  0  0
  6 17  1  0  0  0  0
  7 18  1  0  0  0  0
  9 19  1  0  0  0  0
 10 20  1  0  0  0  0
 10 21  1  0  0  0  0
M  END
> <HYBRID receptor title>
5S18(A) > WOY(A-201)

> <HYBRID receptor filename>
experiments/data/docking/5s18.oedu

> <HYBRID Chemgauss4 score>
-6.744536

> <HYBRID receptor title>
5S18(A) > WOY(A-201)

> <HYBRID receptor filename>
experiments/data/docking/5s18.oedu

> <Dock Type>
Hybrid

$$$$
MOL0418
  -OEChem-07032415493D

 17 17  0     0  0  0  0  0  0999 V2000
   -3.5558   14.9123   -1.1078 C   0  0  0  0  0  0  0  0  0  0  0  0
   -5.0897   14.9148    0.7372 C   0  0  0  0  0  0  0  0  0  0  0  0
   -4.9092   14.8892   -0.5904 C   0  0  0  0  0  0  0  0  0  0  0  0
   -2.4770   14.9580   -0.3072 C   0  0  0  0  0  0  0  0  0  0  0  0
   -2.7006   14.9863    1.1817 C   0  0  0  0  0  0  0  0  0  0  0  0
   -6.0339   14.8378   -1.5747 C   0  0  0  0  0  0  0  0  0  0  0  0
   -4.0225   14.9618    1.5954 N   0  0  0  0  0  0  0  0  0  0  0  0
   -1.1813   14.9816   -0.7300 N   0  0  0  0  0  0  0  0  0  0  0  0
   -1.7535   15.0283    1.9647 O   0  0  0  0  0  0  0  0  0  0  0  0
   -7.5719   15.6895   -0.7662 Br  0  0  0  0  0  0  0  0  0  0  0  0
   -3.4327   14.8912   -2.1873 H   0  0  0  0  0  0  0  0  0  0  0  0
   -6.0668   14.9004    1.2041 H   0  0  0  0  0  0  0  0  0  0  0  0
   -6.2998   13.8102   -1.8072 H   0  0  0  0  0  0  0  0  0  0  0  0
   -5.7822   15.3839   -2.4797 H   0  0  0  0  0  0  0  0  0  0  0  0
   -4.2117   14.9798    2.5933 H   0  0  0  0  0  0  0  0  0  0  0  0
   -0.9973   14.9642   -1.7100 H   0  0  0  0  0  0  0  0  0  0  0  0
   -0.4557   15.0156   -0.0472 H   0  0  0  0  0  0  0  0  0  0  0  0
  1  3  1  0  0  0  0
  1  4  2  0  0  0  0
  2  3  2  0  0  0  0
  2  7  1  0  0  0  0
  3  6  1  0  0  0  0
  4  5  1  0  0  0  0
  4  8  1  0  0  0  0
  5  7  1  0  0  0  0
  5  9  2  0  0  0  0
  6 10  1  0  0  0  0
  1 11  1  0  0  0  0
  2 12  1  0  0  0  0
  6 13  1  0  0  0  0
  6 14  1  0  0  0  0
  7 15  1  0  0  0  0
  8 16  1  0  0  0  0
  8 17  1  0  0  0  0
M  END
> <HYBRID receptor title>
5S18(A) > WOY(A-201)

> <HYBRID receptor filename>
experiments/data/docking/5s18.oedu

> <HYBRID Chemgauss4 score>
-6.743382

> <HYBRID receptor title>
5S18(A) > WOY(A-201)

> <HYBRID receptor filename>
experiments/data/docking/5s18.oedu

> <Dock Type>
Hybrid

$$$$
MOL0144
  -OEChem-07032415493D

 19 19  0     0  0  0  0  0  0999 V2000
   -2.4503   14.8293   -1.0508 C   0  0  0  0  0  0  0  0  0  0  0  0
   -4.2566   15.0465    0.5633 C   0  0  0  0  0  0  0  0  0  0  0  0
   -1.5765   14.7003   -0.0460 C   0  0  0  0  0  0  0  0  0  0  0  0
   -3.8326   15.0070   -0.7036 C   0  0  0  0  0  0  0  0  0  0  0  0
   -1.9783   14.7335    1.3864 C   0  0  0  0  0  0  0  0  0  0  0  0
   -4.5043   14.5172   -3.0283 C   0  0  0  0  0  0  0  0  0  0  0  0
   -3.3457   14.9121    1.5895 N   0  0  0  0  0  0  0  0  0  0  0  0
   -0.2349   14.5263   -0.2592 N   0  0  0  0  0  0  0  0  0  0  0  0
   -4.7105   15.1368   -1.7498 N   0  0  0  0  0  0  0  0  0  0  0  0
   -1.1660   14.6131    2.2994 O   0  0  0  0  0  0  0  0  0  0  0  0
   -2.1427   14.8030   -2.0905 H   0  0  0  0  0  0  0  0  0  0  0  0
   -5.2897   15.1792    0.8592 H   0  0  0  0  0  0  0  0  0  0  0  0
   -3.5693   13.9497   -3.0342 H   0  0  0  0  0  0  0  0  0  0  0  0
   -5.3295   13.8364   -3.2557 H   0  0  0  0  0  0  0  0  0  0  0  0
   -4.4587   15.2772   -3.8132 H   0  0  0  0  0  0  0  0  0  0  0  0
   -3.6895   14.9450    2.5448 H   0  0  0  0  0  0  0  0  0  0  0  0
    0.0941   14.4958   -1.1969 H   0  0  0  0  0  0  0  0  0  0  0  0
    0.3610   14.4370    0.5311 H   0  0  0  0  0  0  0  0  0  0  0  0
   -5.5314   15.6917   -1.5983 H   0  0  0  0  0  0  0  0  0  0  0  0
  1  3  2  0  0  0  0
  1  4  1  0  0  0  0
  2  4  2  0  0  0  0
  2  7  1  0  0  0  0
  3  5  1  0  0  0  0
  3  8  1  0  0  0  0
  4  9  1  0  0  0  0
  5  7  1  0  0  0  0
  5 10  2  0  0  0  0
  6  9  1  0  0  0  0
  1 11  1  0  0  0  0
  2 12  1  0  0  0  0
  6 13  1  0  0  0  0
  6 14  1  0  0  0  0
  6 15  1  0  0  0  0
  7 16  1  0  0  0  0
  8 17  1  0  0  0  0
  8 18  1  0  0  0  0
  9 19  1  0  0  0  0
M  END
> <HYBRID receptor title>
5S18(A) > WOY(A-201)

> <HYBRID receptor filename>
experiments/data/docking/5s18.oedu

> <HYBRID Chemgauss4 score>
-6.739774

> <HYBRID receptor title>
5S18(A) > WOY(A-201)

> <HYBRID receptor filename>
experiments/data/docking/5s18.oedu

> <Dock Type>
Hybrid

$$$$
MOL0392
  -OEChem-07032415493D

 19 19  0     0  0  0  0  0  0999 V2000
   -3.1483   14.8331   -1.2557 C   0  0  0  0  0  0  0  0  0  0  0  0
   -4.5010   14.7582   -0.7134 C   0  0  0  0  0  0  0  0  0  0  0  0
   -2.0460   14.8936   -0.4890 C   0  0  0  0  0  0  0  0  0  0  0  0
   -4.6205   14.7508    0.6255 C   0  0  0  0  0  0  0  0  0  0  0  0
   -2.2225   14.8831    1.0028 C   0  0  0  0  0  0  0  0  0  0  0  0
   -5.5794   14.6992   -1.7611 C   0  0  0  0  0  0  0  0  0  0  0  0
   -3.5287   14.8106    1.4527 N   0  0  0  0  0  0  0  0  0  0  0  0
   -0.7658   14.9646   -0.9521 N   0  0  0  0  0  0  0  0  0  0  0  0
   -5.9326   14.6782    1.1760 N   0  3  0  0  0  0  0  0  0  0  0  0
   -6.8774   14.6266    0.3782 O   0  5  0  0  0  0  0  0  0  0  0  0
   -1.2538   14.9363    1.7583 O   0  0  0  0  0  0  0  0  0  0  0  0
   -6.0277   14.6730    2.4099 O   0  0  0  0  0  0  0  0  0  0  0  0
   -5.0288   14.7097   -2.9942 F   0  0  0  0  0  0  0  0  0  0  0  0
   -6.2783   13.5510   -1.6418 F   0  0  0  0  0  0  0  0  0  0  0  0
   -3.0476   14.8393   -2.3385 H   0  0  0  0  0  0  0  0  0  0  0  0
   -6.2482   15.5455   -1.6538 H   0  0  0  0  0  0  0  0  0  0  0  0
   -3.6922   14.8009    2.4556 H   0  0  0  0  0  0  0  0  0  0  0  0
   -0.6134   14.9736   -1.9376 H   0  0  0  0  0  0  0  0  0  0  0  0
   -0.0198   15.0055   -0.2922 H   0  0  0  0  0  0  0  0  0  0  0  0
  1  2  1  0  0  0  0
  1  3  2  0  0  0  0
  2  4  2  0  0  0  0
  2  6  1  0  0  0  0
  3  5  1  0  0  0  0
  3  8  1  0  0  0  0
  4  7  1  0  0  0  0
  4  9  1  0  0  0  0
  5  7  1  0  0  0  0
  5 11  2  0  0  0  0
  6 13  1  0  0  0  0
  6 14  1  0  0  0  0
  9 10  1  0  0  0  0
  9 12  2  0  0  0  0
  1 15  1  0  0  0  0
  6 16  1  0  0  0  0
  7 17  1  0  0  0  0
  8 18  1  0  0  0  0
  8 19  1  0  0  0  0
M  CHG  2   9   1  10  -1
M  END
> <HYBRID receptor title>
5S18(A) > WOY(A-201)

> <HYBRID receptor filename>
experiments/data/docking/5s18.oedu

> <HYBRID Chemgauss4 score>
-6.737323

> <HYBRID receptor title>
5S18(A) > WOY(A-201)

> <HYBRID receptor filename>
experiments/data/docking/5s18.oedu

> <Dock Type>
Hybrid

$$$$
MOL0002
  -OEChem-07032415493D

 20 20  0     0  0  0  0  0  0999 V2000
   -3.0760   14.7447   -1.1235 C   0  0  0  0  0  0  0  0  0  0  0  0
   -4.5315   14.7475    0.7839 C   0  0  0  0  0  0  0  0  0  0  0  0
   -4.4057   14.7005   -0.5494 C   0  0  0  0  0  0  0  0  0  0  0  0
   -1.9662   14.8305   -0.3699 C   0  0  0  0  0  0  0  0  0  0  0  0
   -2.1283   14.8823    1.1263 C   0  0  0  0  0  0  0  0  0  0  0  0
   -5.9375   13.1628   -1.7816 C   0  0  0  0  0  0  0  0  0  0  0  0
   -5.5689   14.6044   -1.4845 C   0  0  0  0  0  0  0  0  0  0  0  0
   -3.4309   14.8354    1.5955 N   0  0  0  0  0  0  0  0  0  0  0  0
   -0.6901   14.8757   -0.8471 N   0  0  0  0  0  0  0  0  0  0  0  0
   -1.1507   14.9610    1.8680 O   0  0  0  0  0  0  0  0  0  0  0  0
   -2.9974   14.7057   -2.2067 H   0  0  0  0  0  0  0  0  0  0  0  0
   -5.4877   14.7196    1.2916 H   0  0  0  0  0  0  0  0  0  0  0  0
   -6.1879   12.6405   -0.8525 H   0  0  0  0  0  0  0  0  0  0  0  0
   -6.8055   13.1025   -2.4475 H   0  0  0  0  0  0  0  0  0  0  0  0
   -5.1064   12.6293   -2.2556 H   0  0  0  0  0  0  0  0  0  0  0  0
   -5.3192   15.1244   -2.4132 H   0  0  0  0  0  0  0  0  0  0  0  0
   -6.4258   15.1161   -1.0363 H   0  0  0  0  0  0  0  0  0  0  0  0
   -3.5789   14.8681    2.6000 H   0  0  0  0  0  0  0  0  0  0  0  0
   -0.5466   14.8437   -1.8335 H   0  0  0  0  0  0  0  0  0  0  0  0
    0.0622   14.9395   -0.1961 H   0  0  0  0  0  0  0  0  0  0  0  0
  1  3  1  0  0  0  0
  1  4  2  0  0  0  0
  2  3  2  0  0  0  0
  2  8  1  0  0  0  0
  3  7  1  0  0  0  0
  4  5  1  0  0  0  0
  4  9  1  0  0  0  0
  5  8  1  0  0  0  0
  5 10  2  0  0  0  0
  6  7  1  0  0  0  0
  1 11  1  0  0  0  0
  2 12  1  0  0  0  0
  6 13  1  0  0  0  0
  6 14  1  0  0  0  0
  6 15  1  0  0  0  0
  7 16  1  0  0  0  0
  7 17  1  0  0  0  0
  8 18  1  0  0  0  0
  9 19  1  0  0  0  0
  9 20  1  0  0  0  0
M  END
> <HYBRID receptor title>
5S18(A) > WOY(A-201)

> <HYBRID receptor filename>
experiments/data/docking/5s18.oedu

> <HYBRID Chemgauss4 score>
-6.736929

> <HYBRID receptor title>
5S18(A) > WOY(A-201)

> <HYBRID receptor filename>
experiments/data/docking/5s18.oedu

> <Dock Type>
Hybrid

$$$$
MOL0358
  -OEChem-07032415493D

 26 26  0     0  0  0  0  0  0999 V2000
   -1.0421   14.5824   -1.2705 C   0  0  0  0  0  0  0  0  0  0  0  0
   -2.4946   14.5220   -1.3057 C   0  0  0  0  0  0  0  0  0  0  0  0
   -0.3393   14.7335   -0.1370 C   0  0  0  0  0  0  0  0  0  0  0  0
   -3.1763   14.6145   -0.1456 C   0  0  0  0  0  0  0  0  0  0  0  0
   -1.1049   14.8430    1.1475 C   0  0  0  0  0  0  0  0  0  0  0  0
   -2.7269   15.5671   -3.5538 C   0  0  0  0  0  0  0  0  0  0  0  0
   -2.6174   13.0670   -3.3129 C   0  0  0  0  0  0  0  0  0  0  0  0
   -3.0866   14.3714   -2.6774 C   0  0  0  0  0  0  0  0  0  0  0  0
   -4.6673   14.5534    0.0155 C   0  0  0  0  0  0  0  0  0  0  0  0
   -2.4819   14.7715    1.0388 N   0  0  0  0  0  0  0  0  0  0  0  0
    1.0192   14.7965   -0.0496 N   0  0  0  0  0  0  0  0  0  0  0  0
   -0.5242   14.9862    2.2222 O   0  0  0  0  0  0  0  0  0  0  0  0
   -5.2723   14.3890   -1.1776 F   0  0  0  0  0  0  0  0  0  0  0  0
   -5.0266   13.5253    0.8093 F   0  0  0  0  0  0  0  0  0  0  0  0
   -5.1374   15.6894    0.5679 F   0  0  0  0  0  0  0  0  0  0  0  0
   -0.5176   14.4987   -2.2193 H   0  0  0  0  0  0  0  0  0  0  0  0
   -1.6421   15.6427   -3.6914 H   0  0  0  0  0  0  0  0  0  0  0  0
   -3.0696   16.4993   -3.0925 H   0  0  0  0  0  0  0  0  0  0  0  0
   -3.1873   15.4949   -4.5464 H   0  0  0  0  0  0  0  0  0  0  0  0
   -1.5293   13.0583   -3.4389 H   0  0  0  0  0  0  0  0  0  0  0  0
   -2.8862   12.2135   -2.6815 H   0  0  0  0  0  0  0  0  0  0  0  0
   -3.0710   12.9127   -4.2986 H   0  0  0  0  0  0  0  0  0  0  0  0
   -4.1761   14.3385   -2.5698 H   0  0  0  0  0  0  0  0  0  0  0  0
   -3.0271   14.8394    1.8939 H   0  0  0  0  0  0  0  0  0  0  0  0
    1.5567   14.7264   -0.8870 H   0  0  0  0  0  0  0  0  0  0  0  0
    1.4366   14.9108    0.8486 H   0  0  0  0  0  0  0  0  0  0  0  0
  1  2  1  0  0  0  0
  1  3  2  0  0  0  0
  2  4  2  0  0  0  0
  2  8  1  0  0  0  0
  3  5  1  0  0  0  0
  3 11  1  0  0  0  0
  4  9  1  0  0  0  0
  4 10  1  0  0  0  0
  5 10  1  0  0  0  0
  5 12  2  0  0  0  0
  6  8  1  0  0  0  0
  7  8  1  0  0  0  0
  9 13  1  0  0  0  0
  9 14  1  0  0  0  0
  9 15  1  0  0  0  0
  1 16  1  0  0  0  0
  6 17  1  0  0  0  0
  6 18  1  0  0  0  0
  6 19  1  0  0  0  0
  7 20  1  0  0  0  0
  7 21  1  0  0  0  0
  7 22  1  0  0  0  0
  8 23  1  0  0  0  0
 10 24  1  0  0  0  0
 11 25  1  0  0  0  0
 11 26  1  0  0  0  0
M  END
> <HYBRID receptor title>
5S18(A) > WOY(A-201)

> <HYBRID receptor filename>
experiments/data/docking/5s18.oedu

> <HYBRID Chemgauss4 score>
-6.735643

> <HYBRID receptor title>
5S18(A) > WOY(A-201)

> <HYBRID receptor filename>
experiments/data/docking/5s18.oedu

> <Dock Type>
Hybrid

$$$$
MOL0025
  -OEChem-07032415493D

 29 29  0     0  0  0  0  0  0999 V2000
   -3.0708   14.8194   -0.9385 C   0  0  0  0  0  0  0  0  0  0  0  0
   -4.5552   15.0705    0.9297 C   0  0  0  0  0  0  0  0  0  0  0  0
   -4.4068   14.9706   -0.3983 C   0  0  0  0  0  0  0  0  0  0  0  0
   -1.9769   14.7754   -0.1585 C   0  0  0  0  0  0  0  0  0  0  0  0
   -2.1642   14.8895    1.3312 C   0  0  0  0  0  0  0  0  0  0  0  0
   -6.6822   13.5095   -3.1780 C   0  0  0  0  0  0  0  0  0  0  0  0
   -5.3620   16.1971   -2.3228 C   0  0  0  0  0  0  0  0  0  0  0  0
   -6.8635   15.2127   -0.5773 C   0  0  0  0  0  0  0  0  0  0  0  0
   -5.5759   13.6633   -2.1406 C   0  0  0  0  0  0  0  0  0  0  0  0
   -5.5624   15.0070   -1.3706 C   0  0  0  0  0  0  0  0  0  0  0  0
   -3.4714   15.0314    1.7674 N   0  0  0  0  0  0  0  0  0  0  0  0
   -0.6960   14.6352   -0.6032 N   0  0  0  0  0  0  0  0  0  0  0  0
   -1.2019   14.8559    2.0961 O   0  0  0  0  0  0  0  0  0  0  0  0
   -2.9737   14.7406   -2.0180 H   0  0  0  0  0  0  0  0  0  0  0  0
   -5.5176   15.1856    1.4129 H   0  0  0  0  0  0  0  0  0  0  0  0
   -6.6216   14.3251   -3.9070 H   0  0  0  0  0  0  0  0  0  0  0  0
   -7.6736   13.5520   -2.7205 H   0  0  0  0  0  0  0  0  0  0  0  0
   -6.5904   12.5701   -3.7311 H   0  0  0  0  0  0  0  0  0  0  0  0
   -6.1743   16.2725   -3.0528 H   0  0  0  0  0  0  0  0  0  0  0  0
   -5.3340   17.1468   -1.7729 H   0  0  0  0  0  0  0  0  0  0  0  0
   -4.4204   16.1109   -2.8786 H   0  0  0  0  0  0  0  0  0  0  0  0
   -7.7377   15.2469   -1.2363 H   0  0  0  0  0  0  0  0  0  0  0  0
   -6.8438   16.1562   -0.0191 H   0  0  0  0  0  0  0  0  0  0  0  0
   -7.0217   14.4044    0.1465 H   0  0  0  0  0  0  0  0  0  0  0  0
   -5.6637   12.8333   -1.4268 H   0  0  0  0  0  0  0  0  0  0  0  0
   -4.6127   13.5235   -2.6508 H   0  0  0  0  0  0  0  0  0  0  0  0
   -3.6362   15.1112    2.7666 H   0  0  0  0  0  0  0  0  0  0  0  0
   -0.5359   14.5573   -1.5845 H   0  0  0  0  0  0  0  0  0  0  0  0
    0.0432   14.6148    0.0654 H   0  0  0  0  0  0  0  0  0  0  0  0
  1  3  1  0  0  0  0
  1  4  2  0  0  0  0
  2  3  2  0  0  0  0
  2 11  1  0  0  0  0
  3 10  1  0  0  0  0
  4  5  1  0  0  0  0
  4 12  1  0  0  0  0
  5 11  1  0  0  0  0
  5 13  2  0  0  0  0
  6  9  1  0  0  0  0
  7 10  1  0  0  0  0
  8 10  1  0  0  0  0
  9 10  1  0  0  0  0
  1 14  1  0  0  0  0
  2 15  1  0  0  0  0
  6 16  1  0  0  0  0
  6 17  1  0  0  0  0
  6 18  1  0  0  0  0
  7 19  1  0  0  0  0
  7 20  1  0  0  0  0
  7 21  1  0  0  0  0
  8 22  1  0  0  0  0
  8 23  1  0  0  0  0
  8 24  1  0  0  0  0
  9 25  1  0  0  0  0
  9 26  1  0  0  0  0
 11 27  1  0  0  0  0
 12 28  1  0  0  0  0
 12 29  1  0  0  0  0
M  END
> <HYBRID receptor title>
5S18(A) > WOY(A-201)

> <HYBRID receptor filename>
experiments/data/docking/5s18.oedu

> <HYBRID Chemgauss4 score>
-6.733815

> <HYBRID receptor title>
5S18(A) > WOY(A-201)

> <HYBRID receptor filename>
experiments/data/docking/5s18.oedu

> <Dock Type>
Hybrid

$$$$
MOL0292
  -OEChem-07032415493D

 26 26  0     0  0  0  0  0  0999 V2000
   -2.6245   14.8987   -1.0144 C   0  0  0  0  0  0  0  0  0  0  0  0
   -2.3166   14.9639    1.3705 C   0  0  0  0  0  0  0  0  0  0  0  0
   -1.7742   14.9048    0.1500 C   0  0  0  0  0  0  0  0  0  0  0  0
   -3.9648   14.9506   -0.9165 C   0  0  0  0  0  0  0  0  0  0  0  0
   -4.5730   15.0166    0.4619 C   0  0  0  0  0  0  0  0  0  0  0  0
   -0.3170   14.8481    0.0344 C   0  0  0  0  0  0  0  0  0  0  0  0
   -0.0349   15.1818   -3.7954 C   0  0  0  0  0  0  0  0  0  0  0  0
    0.9454   15.6390   -2.7299 C   0  0  0  0  0  0  0  0  0  0  0  0
    1.2330   14.5415   -1.7168 C   0  0  0  0  0  0  0  0  0  0  0  0
   -3.6787   15.0181    1.5216 N   0  0  0  0  0  0  0  0  0  0  0  0
   -4.8334   14.9487   -1.9671 N   0  0  0  0  0  0  0  0  0  0  0  0
   -5.7922   15.0656    0.6144 O   0  0  0  0  0  0  0  0  0  0  0  0
    0.4473   15.3548    0.8417 O   0  0  0  0  0  0  0  0  0  0  0  0
    0.0050   14.1571   -1.0890 O   0  0  0  0  0  0  0  0  0  0  0  0
   -2.1479   14.8500   -1.9893 H   0  0  0  0  0  0  0  0  0  0  0  0
   -1.7435   14.9726    2.2897 H   0  0  0  0  0  0  0  0  0  0  0  0
   -0.9782   14.8556   -3.3463 H   0  0  0  0  0  0  0  0  0  0  0  0
   -0.2519   15.9899   -4.5013 H   0  0  0  0  0  0  0  0  0  0  0  0
    0.3814   14.3413   -4.3587 H   0  0  0  0  0  0  0  0  0  0  0  0
    1.8825   15.9613   -3.1997 H   0  0  0  0  0  0  0  0  0  0  0  0
    0.5489   16.5219   -2.2137 H   0  0  0  0  0  0  0  0  0  0  0  0
    1.6647   13.6620   -2.2057 H   0  0  0  0  0  0  0  0  0  0  0  0
    1.9241   14.8940   -0.9439 H   0  0  0  0  0  0  0  0  0  0  0  0
   -4.0438   15.0617    2.4685 H   0  0  0  0  0  0  0  0  0  0  0  0
   -4.4647   14.9057   -2.8928 H   0  0  0  0  0  0  0  0  0  0  0  0
   -5.8115   14.9903   -1.7794 H   0  0  0  0  0  0  0  0  0  0  0  0
  1  3  1  0  0  0  0
  1  4  2  0  0  0  0
  2  3  2  0  0  0  0
  2 10  1  0  0  0  0
  3  6  1  0  0  0  0
  4  5  1  0  0  0  0
  4 11  1  0  0  0  0
  5 10  1  0  0  0  0
  5 12  2  0  0  0  0
  6 13  2  0  0  0  0
  6 14  1  0  0  0  0
  7  8  1  0  0  0  0
  8  9  1  0  0  0  0
  9 14  1  0  0  0  0
  1 15  1  0  0  0  0
  2 16  1  0  0  0  0
  7 17  1  0  0  0  0
  7 18  1  0  0  0  0
  7 19  1  0  0  0  0
  8 20  1  0  0  0  0
  8 21  1  0  0  0  0
  9 22  1  0  0  0  0
  9 23  1  0  0  0  0
 10 24  1  0  0  0  0
 11 25  1  0  0  0  0
 11 26  1  0  0  0  0
M  END
> <HYBRID receptor title>
5S18(A) > WOY(A-201)

> <HYBRID receptor filename>
experiments/data/docking/5s18.oedu

> <HYBRID Chemgauss4 score>
-6.730172

> <HYBRID receptor title>
5S18(A) > WOY(A-201)

> <HYBRID receptor filename>
experiments/data/docking/5s18.oedu

> <Dock Type>
Hybrid

$$$$
MOL0031
  -OEChem-07032415493D

 21 21  0     0  0  0  0  0  0999 V2000
   -2.6646   14.8590   -1.0264 C   0  0  0  0  0  0  0  0  0  0  0  0
   -4.4602   14.8927    0.5666 C   0  0  0  0  0  0  0  0  0  0  0  0
   -1.7189   14.8901   -0.0703 C   0  0  0  0  0  0  0  0  0  0  0  0
   -4.0797   14.8597   -0.7176 C   0  0  0  0  0  0  0  0  0  0  0  0
   -2.1640   14.9268    1.3675 C   0  0  0  0  0  0  0  0  0  0  0  0
   -4.4100   12.4870   -3.1888 C   0  0  0  0  0  0  0  0  0  0  0  0
   -5.4182   13.0332   -2.1954 C   0  0  0  0  0  0  0  0  0  0  0  0
   -3.5330   14.9248    1.5762 N   0  0  0  0  0  0  0  0  0  0  0  0
   -0.3737   14.8911   -0.2921 N   0  0  0  0  0  0  0  0  0  0  0  0
   -1.3454   14.9562    2.2848 O   0  0  0  0  0  0  0  0  0  0  0  0
   -5.2265   14.8190   -2.0152 S   0  0  0  0  0  0  0  0  0  0  0  0
   -2.3680   14.8321   -2.0720 H   0  0  0  0  0  0  0  0  0  0  0  0
   -5.4940   14.8962    0.8919 H   0  0  0  0  0  0  0  0  0  0  0  0
   -4.5551   12.9608   -4.1650 H   0  0  0  0  0  0  0  0  0  0  0  0
   -3.3818   12.6912   -2.8716 H   0  0  0  0  0  0  0  0  0  0  0  0
   -4.5247   11.4063   -3.3244 H   0  0  0  0  0  0  0  0  0  0  0  0
   -5.2787   12.5635   -1.2169 H   0  0  0  0  0  0  0  0  0  0  0  0
   -6.4367   12.8201   -2.5331 H   0  0  0  0  0  0  0  0  0  0  0  0
   -3.8806   14.9489    2.5305 H   0  0  0  0  0  0  0  0  0  0  0  0
   -0.0440   14.8671   -1.2329 H   0  0  0  0  0  0  0  0  0  0  0  0
    0.2404   14.9158    0.4927 H   0  0  0  0  0  0  0  0  0  0  0  0
  1  3  2  0  0  0  0
  1  4  1  0  0  0  0
  2  4  2  0  0  0  0
  2  8  1  0  0  0  0
  3  5  1  0  0  0  0
  3  9  1  0  0  0  0
  4 11  1  0  0  0  0
  5  8  1  0  0  0  0
  5 10  2  0  0  0  0
  6  7  1  0  0  0  0
  7 11  1  0  0  0  0
  1 12  1  0  0  0  0
  2 13  1  0  0  0  0
  6 14  1  0  0  0  0
  6 15  1  0  0  0  0
  6 16  1  0  0  0  0
  7 17  1  0  0  0  0
  7 18  1  0  0  0  0
  8 19  1  0  0  0  0
  9 20  1  0  0  0  0
  9 21  1  0  0  0  0
M  END
> <HYBRID receptor title>
5S18(A) > WOY(A-201)

> <HYBRID receptor filename>
experiments/data/docking/5s18.oedu

> <HYBRID Chemgauss4 score>
-6.729364

> <HYBRID receptor title>
5S18(A) > WOY(A-201)

> <HYBRID receptor filename>
experiments/data/docking/5s18.oedu

> <Dock Type>
Hybrid

$$$$
MOL0117
  -OEChem-07032415493D

 26 26  0     0  0  0  0  0  0999 V2000
   -2.0938   14.7811   -0.8683 C   0  0  0  0  0  0  0  0  0  0  0  0
   -1.5829   15.0297    1.4627 C   0  0  0  0  0  0  0  0  0  0  0  0
   -1.1322   14.9401    0.2039 C   0  0  0  0  0  0  0  0  0  0  0  0
   -3.4184   14.7207   -0.6478 C   0  0  0  0  0  0  0  0  0  0  0  0
   -3.9051   14.8231    0.7735 C   0  0  0  0  0  0  0  0  0  0  0  0
    0.3177   14.9951   -0.1588 C   0  0  0  0  0  0  0  0  0  0  0  0
    0.5603   14.1711   -1.4159 C   0  0  0  0  0  0  0  0  0  0  0  0
    2.0402   14.1682   -1.7966 C   0  0  0  0  0  0  0  0  0  0  0  0
    2.3038   13.3287   -3.0274 C   0  0  0  0  0  0  0  0  0  0  0  0
   -2.9237   14.9733    1.7397 N   0  0  0  0  0  0  0  0  0  0  0  0
   -4.3725   14.5726   -1.6100 N   0  0  0  0  0  0  0  0  0  0  0  0
   -5.1050   14.7745    1.0383 O   0  0  0  0  0  0  0  0  0  0  0  0
    3.6184   13.3045   -3.3343 F   0  0  0  0  0  0  0  0  0  0  0  0
    1.6432   13.8307   -4.0942 F   0  0  0  0  0  0  0  0  0  0  0  0
    1.8916   12.0551   -2.8522 F   0  0  0  0  0  0  0  0  0  0  0  0
   -1.7063   14.7101   -1.8811 H   0  0  0  0  0  0  0  0  0  0  0  0
   -0.9315   15.1495    2.3196 H   0  0  0  0  0  0  0  0  0  0  0  0
    0.5877   16.0421   -0.3188 H   0  0  0  0  0  0  0  0  0  0  0  0
    0.8932   14.6027    0.6842 H   0  0  0  0  0  0  0  0  0  0  0  0
   -0.0365   14.5747   -2.2438 H   0  0  0  0  0  0  0  0  0  0  0  0
    0.2144   13.1422   -1.2561 H   0  0  0  0  0  0  0  0  0  0  0  0
    2.3766   15.1947   -1.9839 H   0  0  0  0  0  0  0  0  0  0  0  0
    2.6360   13.7791   -0.9627 H   0  0  0  0  0  0  0  0  0  0  0  0
   -3.2150   15.0458    2.7101 H   0  0  0  0  0  0  0  0  0  0  0  0
   -4.0848   14.5013   -2.5622 H   0  0  0  0  0  0  0  0  0  0  0  0
   -5.3298   14.5398   -1.3338 H   0  0  0  0  0  0  0  0  0  0  0  0
  1  3  1  0  0  0  0
  1  4  2  0  0  0  0
  2  3  2  0  0  0  0
  2 10  1  0  0  0  0
  3  6  1  0  0  0  0
  4  5  1  0  0  0  0
  4 11  1  0  0  0  0
  5 10  1  0  0  0  0
  5 12  2  0  0  0  0
  6  7  1  0  0  0  0
  7  8  1  0  0  0  0
  8  9  1  0  0  0  0
  9 13  1  0  0  0  0
  9 14  1  0  0  0  0
  9 15  1  0  0  0  0
  1 16  1  0  0  0  0
  2 17  1  0  0  0  0
  6 18  1  0  0  0  0
  6 19  1  0  0  0  0
  7 20  1  0  0  0  0
  7 21  1  0  0  0  0
  8 22  1  0  0  0  0
  8 23  1  0  0  0  0
 10 24  1  0  0  0  0
 11 25  1  0  0  0  0
 11 26  1  0  0  0  0
M  END
> <HYBRID receptor title>
5S18(A) > WOY(A-201)

> <HYBRID receptor filename>
experiments/data/docking/5s18.oedu

> <HYBRID Chemgauss4 score>
-6.727934

> <HYBRID receptor title>
5S18(A) > WOY(A-201)

> <HYBRID receptor filename>
experiments/data/docking/5s18.oedu

> <Dock Type>
Hybrid

$$$$
MOL0186
  -OEChem-07032415493D

 32 32  0     0  0  0  0  0  0999 V2000
   -2.1383   14.7944   -0.9443 C   0  0  0  0  0  0  0  0  0  0  0  0
    0.2003   14.2985   -1.1488 C   0  0  0  0  0  0  0  0  0  0  0  0
   -0.9976   14.3921   -1.7422 C   0  0  0  0  0  0  0  0  0  0  0  0
   -2.0397   15.0771    0.3662 C   0  0  0  0  0  0  0  0  0  0  0  0
   -0.6853   14.9660    1.0147 C   0  0  0  0  0  0  0  0  0  0  0  0
   -6.8168   14.9672   -1.1503 C   0  0  0  0  0  0  0  0  0  0  0  0
   -7.4325   15.2955    1.2530 C   0  0  0  0  0  0  0  0  0  0  0  0
   -5.1939   14.2959    0.7020 C   0  0  0  0  0  0  0  0  0  0  0  0
   -4.4239   15.6149    0.7153 C   0  0  0  0  0  0  0  0  0  0  0  0
   -6.6683   14.4091    0.2653 C   0  0  0  0  0  0  0  0  0  0  0  0
   -1.2246   14.1025   -3.1917 C   0  0  0  0  0  0  0  0  0  0  0  0
    0.3528   14.5758    0.1845 N   0  0  0  0  0  0  0  0  0  0  0  0
   -3.0696   15.4594    1.1689 N   0  0  0  0  0  0  0  0  0  0  0  0
   -0.5321   15.2115    2.2098 O   0  0  0  0  0  0  0  0  0  0  0  0
   -2.5215   14.2751   -3.5235 F   0  0  0  0  0  0  0  0  0  0  0  0
   -0.4874   14.9176   -3.9749 F   0  0  0  0  0  0  0  0  0  0  0  0
   -0.8885   12.8299   -3.4909 F   0  0  0  0  0  0  0  0  0  0  0  0
   -3.0999   14.8634   -1.4457 H   0  0  0  0  0  0  0  0  0  0  0  0
    1.1014   14.0050   -1.6729 H   0  0  0  0  0  0  0  0  0  0  0  0
   -6.3739   15.9636   -1.2348 H   0  0  0  0  0  0  0  0  0  0  0  0
   -6.3065   14.3250   -1.8765 H   0  0  0  0  0  0  0  0  0  0  0  0
   -7.8704   15.0349   -1.4424 H   0  0  0  0  0  0  0  0  0  0  0  0
   -7.0163   16.3070    1.2697 H   0  0  0  0  0  0  0  0  0  0  0  0
   -7.3672   14.8909    2.2688 H   0  0  0  0  0  0  0  0  0  0  0  0
   -8.4925   15.3674    0.9852 H   0  0  0  0  0  0  0  0  0  0  0  0
   -4.6788   13.5977    0.0293 H   0  0  0  0  0  0  0  0  0  0  0  0
   -5.1452   13.8556    1.7061 H   0  0  0  0  0  0  0  0  0  0  0  0
   -4.3976   16.0802   -0.2743 H   0  0  0  0  0  0  0  0  0  0  0  0
   -4.9081   16.3181    1.3996 H   0  0  0  0  0  0  0  0  0  0  0  0
   -7.1277   13.4133    0.2916 H   0  0  0  0  0  0  0  0  0  0  0  0
    1.2812   14.4901    0.5876 H   0  0  0  0  0  0  0  0  0  0  0  0
   -2.8624   15.6413    2.1438 H   0  0  0  0  0  0  0  0  0  0  0  0
  1  3  1  0  0  0  0
  1  4  2  0  0  0  0
  2  3  2  0  0  0  0
  2 12  1  0  0  0  0
  3 11  1  0  0  0  0
  4  5  1  0  0  0  0
  4 13  1  0  0  0  0
  5 12  1  0  0  0  0
  5 14  2  0  0  0  0
  6 10  1  0  0  0  0
  7 10  1  0  0  0  0
  8  9  1  0  0  0  0
  8 10  1  0  0  0  0
  9 13  1  0  0  0  0
 11 15  1  0  0  0  0
 11 16  1  0  0  0  0
 11 17  1  0  0  0  0
  1 18  1  0  0  0  0
  2 19  1  0  0  0  0
  6 20  1  0  0  0  0
  6 21  1  0  0  0  0
  6 22  1  0  0  0  0
  7 23  1  0  0  0  0
  7 24  1  0  0  0  0
  7 25  1  0  0  0  0
  8 26  1  0  0  0  0
  8 27  1  0  0  0  0
  9 28  1  0  0  0  0
  9 29  1  0  0  0  0
 10 30  1  0  0  0  0
 12 31  1  0  0  0  0
 13 32  1  0  0  0  0
M  END
> <HYBRID receptor title>
5S18(A) > WOY(A-201)

> <HYBRID receptor filename>
experiments/data/docking/5s18.oedu

> <HYBRID Chemgauss4 score>
-6.722085

> <HYBRID receptor title>
5S18(A) > WOY(A-201)

> <HYBRID receptor filename>
experiments/data/docking/5s18.oedu

> <Dock Type>
Hybrid

$$$$
MOL0193
  -OEChem-07032415493D

 22 22  0     0  0  0  0  0  0999 V2000
   -4.2699   14.6666    0.6865 C   0  0  0  0  0  0  0  0  0  0  0  0
   -2.5603   14.5809   -1.0213 C   0  0  0  0  0  0  0  0  0  0  0  0
   -3.9812   14.6234   -0.6243 C   0  0  0  0  0  0  0  0  0  0  0  0
   -1.5727   14.5857   -0.0932 C   0  0  0  0  0  0  0  0  0  0  0  0
   -1.9493   14.6361    1.3667 C   0  0  0  0  0  0  0  0  0  0  0  0
   -6.2449   15.2563   -1.3796 C   0  0  0  0  0  0  0  0  0  0  0  0
   -2.2723   14.5321   -2.5044 C   0  0  0  0  0  0  0  0  0  0  0  0
   -3.2981   14.6729    1.6446 N   0  0  0  0  0  0  0  0  0  0  0  0
   -0.2252   14.5498   -0.3198 N   0  0  0  0  0  0  0  0  0  0  0  0
   -4.9724   14.6185   -1.5711 N   0  0  0  0  0  0  0  0  0  0  0  0
   -1.0881   14.6430    2.2453 O   0  0  0  0  0  0  0  0  0  0  0  0
   -3.4191   14.5372   -3.2053 F   0  0  0  0  0  0  0  0  0  0  0  0
   -1.5405   15.5949   -2.8796 F   0  0  0  0  0  0  0  0  0  0  0  0
   -1.5900   13.4161   -2.8136 F   0  0  0  0  0  0  0  0  0  0  0  0
   -5.2865   14.6994    1.0619 H   0  0  0  0  0  0  0  0  0  0  0  0
   -6.2950   15.7261   -0.3930 H   0  0  0  0  0  0  0  0  0  0  0  0
   -6.4012   16.0243   -2.1423 H   0  0  0  0  0  0  0  0  0  0  0  0
   -7.0512   14.5221   -1.4601 H   0  0  0  0  0  0  0  0  0  0  0  0
   -3.5954   14.7073    2.6153 H   0  0  0  0  0  0  0  0  0  0  0  0
    0.0972   14.5160   -1.2610 H   0  0  0  0  0  0  0  0  0  0  0  0
    0.3884   14.5587    0.4636 H   0  0  0  0  0  0  0  0  0  0  0  0
   -4.7854   14.1451   -2.4353 H   0  0  0  0  0  0  0  0  0  0  0  0
  1  3  2  0  0  0  0
  1  8  1  0  0  0  0
  2  3  1  0  0  0  0
  2  4  2  0  0  0  0
  2  7  1  0  0  0  0
  3 10  1  0  0  0  0
  4  5  1  0  0  0  0
  4  9  1  0  0  0  0
  5  8  1  0  0  0  0
  5 11  2  0  0  0  0
  6 10  1  0  0  0  0
  7 12  1  0  0  0  0
  7 13  1  0  0  0  0
  7 14  1  0  0  0  0
  1 15  1  0  0  0  0
  6 16  1  0  0  0  0
  6 17  1  0  0  0  0
  6 18  1  0  0  0  0
  8 19  1  0  0  0  0
  9 20  1  0  0  0  0
  9 21  1  0  0  0  0
 10 22  1  0  0  0  0
M  END
> <HYBRID receptor title>
5S18(A) > WOY(A-201)

> <HYBRID receptor filename>
experiments/data/docking/5s18.oedu

> <HYBRID Chemgauss4 score>
-6.718839

> <HYBRID receptor title>
5S18(A) > WOY(A-201)

> <HYBRID receptor filename>
experiments/data/docking/5s18.oedu

> <Dock Type>
Hybrid

$$$$
MOL0362
  -OEChem-07032415493D

 25 26  0     0  0  0  0  0  0999 V2000
   -2.6689   14.6346   -0.7878 C   0  0  0  0  0  0  0  0  0  0  0  0
   -4.9426   15.0523   -2.7096 C   0  0  0  0  0  0  0  0  0  0  0  0
   -4.4079   14.9997    0.8337 C   0  0  0  0  0  0  0  0  0  0  0  0
   -4.0602   14.7800   -0.4383 C   0  0  0  0  0  0  0  0  0  0  0  0
   -5.1129   14.6945   -1.4348 C   0  0  0  0  0  0  0  0  0  0  0  0
   -1.6922   14.7135    0.1334 C   0  0  0  0  0  0  0  0  0  0  0  0
   -2.0883   14.9621    1.5671 C   0  0  0  0  0  0  0  0  0  0  0  0
   -6.2014   14.8637   -3.4893 C   0  0  0  0  0  0  0  0  0  0  0  0
   -6.4896   14.2125   -1.1457 C   0  0  0  0  0  0  0  0  0  0  0  0
   -7.0624   14.0144   -2.5506 C   0  0  0  0  0  0  0  0  0  0  0  0
   -3.4478   15.0884    1.8091 N   0  0  0  0  0  0  0  0  0  0  0  0
   -0.3584   14.5875   -0.1180 N   0  0  0  0  0  0  0  0  0  0  0  0
   -1.2397   15.0444    2.4535 O   0  0  0  0  0  0  0  0  0  0  0  0
   -2.4203   14.4569   -1.8306 H   0  0  0  0  0  0  0  0  0  0  0  0
   -4.0293   15.4508   -3.1341 H   0  0  0  0  0  0  0  0  0  0  0  0
   -5.4289   15.1195    1.1769 H   0  0  0  0  0  0  0  0  0  0  0  0
   -6.6676   15.8320   -3.6984 H   0  0  0  0  0  0  0  0  0  0  0  0
   -6.0212   14.3443   -4.4350 H   0  0  0  0  0  0  0  0  0  0  0  0
   -6.5068   13.2731   -0.5819 H   0  0  0  0  0  0  0  0  0  0  0  0
   -7.0555   14.9693   -0.5891 H   0  0  0  0  0  0  0  0  0  0  0  0
   -8.1215   14.2863   -2.6059 H   0  0  0  0  0  0  0  0  0  0  0  0
   -6.9853   12.9567   -2.8355 H   0  0  0  0  0  0  0  0  0  0  0  0
   -3.7610   15.2566    2.7607 H   0  0  0  0  0  0  0  0  0  0  0  0
   -0.0615   14.4229   -1.0557 H   0  0  0  0  0  0  0  0  0  0  0  0
    0.2812   14.6637    0.6429 H   0  0  0  0  0  0  0  0  0  0  0  0
  1  4  1  0  0  0  0
  1  6  2  0  0  0  0
  2  5  2  0  0  0  0
  2  8  1  0  0  0  0
  3  4  2  0  0  0  0
  3 11  1  0  0  0  0
  4  5  1  0  0  0  0
  5  9  1  0  0  0  0
  6  7  1  0  0  0  0
  6 12  1  0  0  0  0
  7 11  1  0  0  0  0
  7 13  2  0  0  0  0
  8 10  1  0  0  0  0
  9 10  1  0  0  0  0
  1 14  1  0  0  0  0
  2 15  1  0  0  0  0
  3 16  1  0  0  0  0
  8 17  1  0  0  0  0
  8 18  1  0  0  0  0
  9 19  1  0  0  0  0
  9 20  1  0  0  0  0
 10 21  1  0  0  0  0
 10 22  1  0  0  0  0
 11 23  1  0  0  0  0
 12 24  1  0  0  0  0
 12 25  1  0  0  0  0
M  END
> <HYBRID receptor title>
5S18(A) > WOY(A-201)

> <HYBRID receptor filename>
experiments/data/docking/5s18.oedu

> <HYBRID Chemgauss4 score>
-6.717808

> <HYBRID receptor title>
5S18(A) > WOY(A-201)

> <HYBRID receptor filename>
experiments/data/docking/5s18.oedu

> <Dock Type>
Hybrid

$$$$
MOL0038
  -OEChem-07032415493D

 16 16  0     0  0  0  0  0  0999 V2000
   -6.1486   14.9588   -2.6469 C   0  0  0  0  0  0  0  0  0  0  0  0
   -5.2957   14.9179   -1.8032 C   0  0  0  0  0  0  0  0  0  0  0  0
   -2.9135   14.6135   -1.1830 C   0  0  0  0  0  0  0  0  0  0  0  0
   -4.5808   15.0546    0.4873 C   0  0  0  0  0  0  0  0  0  0  0  0
   -4.2861   14.8689   -0.8053 C   0  0  0  0  0  0  0  0  0  0  0  0
   -1.9182   14.5549   -0.2803 C   0  0  0  0  0  0  0  0  0  0  0  0
   -2.2642   14.7659    1.1707 C   0  0  0  0  0  0  0  0  0  0  0  0
   -3.6010   15.0050    1.4454 N   0  0  0  0  0  0  0  0  0  0  0  0
   -0.6065   14.3183   -0.5665 N   0  0  0  0  0  0  0  0  0  0  0  0
   -1.3975   14.7239    2.0422 O   0  0  0  0  0  0  0  0  0  0  0  0
   -6.9062   14.9947   -3.3940 H   0  0  0  0  0  0  0  0  0  0  0  0
   -2.6975   14.4659   -2.2382 H   0  0  0  0  0  0  0  0  0  0  0  0
   -5.5818   15.2507    0.8535 H   0  0  0  0  0  0  0  0  0  0  0  0
   -3.8712   15.1521    2.4135 H   0  0  0  0  0  0  0  0  0  0  0  0
   -0.3427   14.1743   -1.5174 H   0  0  0  0  0  0  0  0  0  0  0  0
    0.0503   14.2963    0.1830 H   0  0  0  0  0  0  0  0  0  0  0  0
  1  2  3  0  0  0  0
  2  5  1  0  0  0  0
  3  5  1  0  0  0  0
  3  6  2  0  0  0  0
  4  5  2  0  0  0  0
  4  8  1  0  0  0  0
  6  7  1  0  0  0  0
  6  9  1  0  0  0  0
  7  8  1  0  0  0  0
  7 10  2  0  0  0  0
  1 11  1  0  0  0  0
  3 12  1  0  0  0  0
  4 13  1  0  0  0  0
  8 14  1  0  0  0  0
  9 15  1  0  0  0  0
  9 16  1  0  0  0  0
M  END
> <HYBRID receptor title>
5S18(A) > WOY(A-201)

> <HYBRID receptor filename>
experiments/data/docking/5s18.oedu

> <HYBRID Chemgauss4 score>
-6.717136

> <HYBRID receptor title>
5S18(A) > WOY(A-201)

> <HYBRID receptor filename>
experiments/data/docking/5s18.oedu

> <Dock Type>
Hybrid

$$$$
MOL0243
  -OEChem-07032415493D

 15 15  0     0  0  0  0  0  0999 V2000
   -2.8195   14.5563   -1.2264 C   0  0  0  0  0  0  0  0  0  0  0  0
   -4.5731   14.8793    0.3834 C   0  0  0  0  0  0  0  0  0  0  0  0
   -4.2271   14.6664   -0.8942 C   0  0  0  0  0  0  0  0  0  0  0  0
   -1.8728   14.6636   -0.2840 C   0  0  0  0  0  0  0  0  0  0  0  0
   -2.2593   14.9007    1.1409 C   0  0  0  0  0  0  0  0  0  0  0  0
   -5.2193   14.5354   -2.0057 C   0  0  0  0  0  0  0  0  0  0  0  0
   -3.6243   14.9930    1.3690 N   0  0  0  0  0  0  0  0  0  0  0  0
   -1.4181   15.0038    2.0303 O   0  0  0  0  0  0  0  0  0  0  0  0
   -4.5999   14.3267   -3.1865 F   0  0  0  0  0  0  0  0  0  0  0  0
   -6.0589   13.5006   -1.7926 F   0  0  0  0  0  0  0  0  0  0  0  0
   -5.9659   15.6536   -2.1239 F   0  0  0  0  0  0  0  0  0  0  0  0
   -0.2004   14.5379   -0.6572 Cl  0  0  0  0  0  0  0  0  0  0  0  0
   -2.5573   14.3847   -2.2663 H   0  0  0  0  0  0  0  0  0  0  0  0
   -5.6010   14.9731    0.7115 H   0  0  0  0  0  0  0  0  0  0  0  0
   -3.9404   15.1541    2.3209 H   0  0  0  0  0  0  0  0  0  0  0  0
  1  3  1  0  0  0  0
  1  4  2  0  0  0  0
  2  3  2  0  0  0  0
  2  7  1  0  0  0  0
  3  6  1  0  0  0  0
  4  5  1  0  0  0  0
  4 12  1  0  0  0  0
  5  7  1  0  0  0  0
  5  8  2  0  0  0  0
  6  9  1  0  0  0  0
  6 10  1  0  0  0  0
  6 11  1  0  0  0  0
  1 13  1  0  0  0  0
  2 14  1  0  0  0  0
  7 15  1  0  0  0  0
M  END
> <HYBRID receptor title>
5S18(A) > WOY(A-201)

> <HYBRID receptor filename>
experiments/data/docking/5s18.oedu

> <HYBRID Chemgauss4 score>
-6.715350

> <HYBRID receptor title>
5S18(A) > WOY(A-201)

> <HYBRID receptor filename>
experiments/data/docking/5s18.oedu

> <Dock Type>
Hybrid

$$$$
MOL0167
  -OEChem-07032415493D

 20 20  0     0  0  0  0  0  0999 V2000
   -2.0791   14.8983   -1.0582 C   0  0  0  0  0  0  0  0  0  0  0  0
   -3.9585   15.1353    0.4144 C   0  0  0  0  0  0  0  0  0  0  0  0
   -3.5040   15.0509   -0.8434 C   0  0  0  0  0  0  0  0  0  0  0  0
   -1.1981   14.8379   -0.0447 C   0  0  0  0  0  0  0  0  0  0  0  0
   -1.7283   14.9347    1.3613 C   0  0  0  0  0  0  0  0  0  0  0  0
   -4.3911   15.1060   -2.0462 C   0  0  0  0  0  0  0  0  0  0  0  0
   -4.8744   13.7324   -2.4655 C   0  0  0  0  0  0  0  0  0  0  0  0
   -3.1008   15.0792    1.4816 N   0  0  0  0  0  0  0  0  0  0  0  0
    0.1508   14.6953   -0.1795 N   0  0  0  0  0  0  0  0  0  0  0  0
   -0.9717   14.8858    2.3294 O   0  0  0  0  0  0  0  0  0  0  0  0
   -3.8241   12.9388   -2.7870 F   0  0  0  0  0  0  0  0  0  0  0  0
   -5.6582   13.8234   -3.5678 F   0  0  0  0  0  0  0  0  0  0  0  0
   -1.7326   14.8323   -2.0861 H   0  0  0  0  0  0  0  0  0  0  0  0
   -5.0068   15.2503    0.6606 H   0  0  0  0  0  0  0  0  0  0  0  0
   -3.8285   15.5608   -2.8669 H   0  0  0  0  0  0  0  0  0  0  0  0
   -5.2467   15.7463   -1.8135 H   0  0  0  0  0  0  0  0  0  0  0  0
   -5.4465   13.2468   -1.6699 H   0  0  0  0  0  0  0  0  0  0  0  0
   -3.4944   15.1476    2.4155 H   0  0  0  0  0  0  0  0  0  0  0  0
    0.5357   14.6286   -1.0971 H   0  0  0  0  0  0  0  0  0  0  0  0
    0.7131   14.6621    0.6430 H   0  0  0  0  0  0  0  0  0  0  0  0
  1  3  1  0  0  0  0
  1  4  2  0  0  0  0
  2  3  2  0  0  0  0
  2  8  1  0  0  0  0
  3  6  1  0  0  0  0
  4  5  1  0  0  0  0
  4  9  1  0  0  0  0
  5  8  1  0  0  0  0
  5 10  2  0  0  0  0
  6  7  1  0  0  0  0
  7 11  1  0  0  0  0
  7 12  1  0  0  0  0
  1 13  1  0  0  0  0
  2 14  1  0  0  0  0
  6 15  1  0  0  0  0
  6 16  1  0  0  0  0
  7 17  1  0  0  0  0
  8 18  1  0  0  0  0
  9 19  1  0  0  0  0
  9 20  1  0  0  0  0
M  END
> <HYBRID receptor title>
5S18(A) > WOY(A-201)

> <HYBRID receptor filename>
experiments/data/docking/5s18.oedu

> <HYBRID Chemgauss4 score>
-6.714933

> <HYBRID receptor title>
5S18(A) > WOY(A-201)

> <HYBRID receptor filename>
experiments/data/docking/5s18.oedu

> <Dock Type>
Hybrid

$$$$
MOL0115
  -OEChem-07032415493D

 24 25  0     0  0  0  0  0  0999 V2000
   -8.4395   14.8717   -0.6734 C   0  0  0  0  0  0  0  0  0  0  0  0
   -7.3274   15.5112   -1.1694 C   0  0  0  0  0  0  0  0  0  0  0  0
   -6.9118   13.3905   -0.7350 C   0  0  0  0  0  0  0  0  0  0  0  0
   -2.5601   14.7212   -0.8301 C   0  0  0  0  0  0  0  0  0  0  0  0
   -4.3497   14.9993    0.7437 C   0  0  0  0  0  0  0  0  0  0  0  0
   -3.9741   14.8251   -0.5308 C   0  0  0  0  0  0  0  0  0  0  0  0
   -1.6131   14.7926    0.1212 C   0  0  0  0  0  0  0  0  0  0  0  0
   -2.0552   14.9886    1.5472 C   0  0  0  0  0  0  0  0  0  0  0  0
   -4.9392   14.7314   -1.6694 C   0  0  0  0  0  0  0  0  0  0  0  0
   -8.1743   13.5525   -0.4050 N   0  0  0  0  0  0  0  0  0  0  0  0
   -6.3571   14.5495   -1.2032 N   0  0  0  0  0  0  0  0  0  0  0  0
   -3.4227   15.0786    1.7497 N   0  0  0  0  0  0  0  0  0  0  0  0
   -0.2702   14.7022   -0.0942 N   0  0  0  0  0  0  0  0  0  0  0  0
   -1.2357   15.0615    2.4611 O   0  0  0  0  0  0  0  0  0  0  0  0
   -9.4177   15.2946   -0.4965 H   0  0  0  0  0  0  0  0  0  0  0  0
   -7.1503   16.5285   -1.4895 H   0  0  0  0  0  0  0  0  0  0  0  0
   -6.3520   12.4684   -0.6577 H   0  0  0  0  0  0  0  0  0  0  0  0
   -2.2781   14.5806   -1.8701 H   0  0  0  0  0  0  0  0  0  0  0  0
   -5.3844   15.0863    1.0513 H   0  0  0  0  0  0  0  0  0  0  0  0
   -4.6468   13.8999   -2.3190 H   0  0  0  0  0  0  0  0  0  0  0  0
   -4.8579   15.6344   -2.2830 H   0  0  0  0  0  0  0  0  0  0  0  0
   -3.7578   15.2111    2.6994 H   0  0  0  0  0  0  0  0  0  0  0  0
    0.0572   14.5724   -1.0272 H   0  0  0  0  0  0  0  0  0  0  0  0
    0.3454   14.7686    0.6872 H   0  0  0  0  0  0  0  0  0  0  0  0
  1  2  2  0  0  0  0
  1 10  1  0  0  0  0
  2 11  1  0  0  0  0
  3 10  2  0  0  0  0
  3 11  1  0  0  0  0
  4  6  1  0  0  0  0
  4  7  2  0  0  0  0
  5  6  2  0  0  0  0
  5 12  1  0  0  0  0
  6  9  1  0  0  0  0
  7  8  1  0  0  0  0
  7 13  1  0  0  0  0
  8 12  1  0  0  0  0
  8 14  2  0  0  0  0
  9 11  1  0  0  0  0
  1 15  1  0  0  0  0
  2 16  1  0  0  0  0
  3 17  1  0  0  0  0
  4 18  1  0  0  0  0
  5 19  1  0  0  0  0
  9 20  1  0  0  0  0
  9 21  1  0  0  0  0
 12 22  1  0  0  0  0
 13 23  1  0  0  0  0
 13 24  1  0  0  0  0
M  END
> <HYBRID receptor title>
5S18(A) > WOY(A-201)

> <HYBRID receptor filename>
experiments/data/docking/5s18.oedu

> <HYBRID Chemgauss4 score>
-6.712221

> <HYBRID receptor title>
5S18(A) > WOY(A-201)

> <HYBRID receptor filename>
experiments/data/docking/5s18.oedu

> <Dock Type>
Hybrid

$$$$
MOL0200
  -OEChem-07032415493D

 29 29  0     0  0  0  0  0  0999 V2000
   -2.8418   14.6042   -1.0400 C   0  0  0  0  0  0  0  0  0  0  0  0
   -4.5391   14.9451    0.6213 C   0  0  0  0  0  0  0  0  0  0  0  0
   -4.2359   14.7355   -0.6671 C   0  0  0  0  0  0  0  0  0  0  0  0
   -1.8435   14.6842   -0.1433 C   0  0  0  0  0  0  0  0  0  0  0  0
   -2.2045   14.9201    1.2994 C   0  0  0  0  0  0  0  0  0  0  0  0
   -4.5624   14.3891   -3.0970 C   0  0  0  0  0  0  0  0  0  0  0  0
   -6.2154   13.4563   -1.4550 C   0  0  0  0  0  0  0  0  0  0  0  0
   -6.0813   15.9293   -1.8259 C   0  0  0  0  0  0  0  0  0  0  0  0
   -0.0064   14.3464   -1.7577 C   0  0  0  0  0  0  0  0  0  0  0  0
   -5.2628   14.6290   -1.7491 C   0  0  0  0  0  0  0  0  0  0  0  0
   -3.5577   15.0346    1.5734 N   0  0  0  0  0  0  0  0  0  0  0  0
   -0.5156   14.5694   -0.4289 N   0  0  0  0  0  0  0  0  0  0  0  0
   -1.3356   15.0026    2.1655 O   0  0  0  0  0  0  0  0  0  0  0  0
   -2.6188   14.4351   -2.0900 H   0  0  0  0  0  0  0  0  0  0  0  0
   -5.5543   15.0542    0.9824 H   0  0  0  0  0  0  0  0  0  0  0  0
   -5.2900   14.3063   -3.9127 H   0  0  0  0  0  0  0  0  0  0  0  0
   -3.9728   13.4645   -3.0834 H   0  0  0  0  0  0  0  0  0  0  0  0
   -3.8817   15.2125   -3.3422 H   0  0  0  0  0  0  0  0  0  0  0  0
   -6.9797   13.3553   -2.2341 H   0  0  0  0  0  0  0  0  0  0  0  0
   -6.7326   13.5971   -0.4990 H   0  0  0  0  0  0  0  0  0  0  0  0
   -5.6715   12.5068   -1.4008 H   0  0  0  0  0  0  0  0  0  0  0  0
   -6.8427   15.8787   -2.6121 H   0  0  0  0  0  0  0  0  0  0  0  0
   -6.5955   16.1308   -0.8789 H   0  0  0  0  0  0  0  0  0  0  0  0
   -5.4397   16.7908   -2.0435 H   0  0  0  0  0  0  0  0  0  0  0  0
   -0.8269   14.2826   -2.4783 H   0  0  0  0  0  0  0  0  0  0  0  0
    0.6555   15.1660   -2.0512 H   0  0  0  0  0  0  0  0  0  0  0  0
    0.5641   13.4141   -1.7919 H   0  0  0  0  0  0  0  0  0  0  0  0
   -3.8388   15.1942    2.5364 H   0  0  0  0  0  0  0  0  0  0  0  0
    0.1384   14.6478    0.3322 H   0  0  0  0  0  0  0  0  0  0  0  0
  1  3  1  0  0  0  0
  1  4  2  0  0  0  0
  2  3  2  0  0  0  0
  2 11  1  0  0  0  0
  3 10  1  0  0  0  0
  4  5  1  0  0  0  0
  4 12  1  0  0  0  0
  5 11  1  0  0  0  0
  5 13  2  0  0  0  0
  6 10  1  0  0  0  0
  7 10  1  0  0  0  0
  8 10  1  0  0  0  0
  9 12  1  0  0  0  0
  1 14  1  0  0  0  0
  2 15  1  0  0  0  0
  6 16  1  0  0  0  0
  6 17  1  0  0  0  0
  6 18  1  0  0  0  0
  7 19  1  0  0  0  0
  7 20  1  0  0  0  0
  7 21  1  0  0  0  0
  8 22  1  0  0  0  0
  8 23  1  0  0  0  0
  8 24  1  0  0  0  0
  9 25  1  0  0  0  0
  9 26  1  0  0  0  0
  9 27  1  0  0  0  0
 11 28  1  0  0  0  0
 12 29  1  0  0  0  0
M  END
> <HYBRID receptor title>
5S18(A) > WOY(A-201)

> <HYBRID receptor filename>
experiments/data/docking/5s18.oedu

> <HYBRID Chemgauss4 score>
-6.711933

> <HYBRID receptor title>
5S18(A) > WOY(A-201)

> <HYBRID receptor filename>
experiments/data/docking/5s18.oedu

> <Dock Type>
Hybrid

$$$$
MOL0343
  -OEChem-07032415493D

 26 26  0     0  0  0  0  0  0999 V2000
   -1.6020   14.5639   -1.1141 C   0  0  0  0  0  0  0  0  0  0  0  0
   -3.6352   14.7478    0.1463 C   0  0  0  0  0  0  0  0  0  0  0  0
   -3.0485   14.6226   -1.0519 C   0  0  0  0  0  0  0  0  0  0  0  0
   -0.8284   14.6297   -0.0168 C   0  0  0  0  0  0  0  0  0  0  0  0
   -1.5064   14.7704    1.3203 C   0  0  0  0  0  0  0  0  0  0  0  0
   -7.5844   14.6583   -3.2000 C   0  0  0  0  0  0  0  0  0  0  0  0
   -6.0846   14.5499   -3.4268 C   0  0  0  0  0  0  0  0  0  0  0  0
   -5.3121   14.6151   -2.1066 C   0  0  0  0  0  0  0  0  0  0  0  0
   -3.8082   14.5397   -2.3374 C   0  0  0  0  0  0  0  0  0  0  0  0
   -2.8907   14.8194    1.2945 N   0  0  0  0  0  0  0  0  0  0  0  0
    0.5338   14.5801   -0.0077 N   0  0  0  0  0  0  0  0  0  0  0  0
   -0.8524   14.8358    2.3596 O   0  0  0  0  0  0  0  0  0  0  0  0
   -3.4264   15.5474   -3.1628 F   0  0  0  0  0  0  0  0  0  0  0  0
   -3.5064   13.3806   -2.9759 F   0  0  0  0  0  0  0  0  0  0  0  0
   -1.1474   14.4626   -2.0959 H   0  0  0  0  0  0  0  0  0  0  0  0
   -4.7088   14.7990    0.2795 H   0  0  0  0  0  0  0  0  0  0  0  0
   -7.9406   13.8601   -2.5409 H   0  0  0  0  0  0  0  0  0  0  0  0
   -7.8439   15.6204   -2.7464 H   0  0  0  0  0  0  0  0  0  0  0  0
   -8.1185   14.5766   -4.1518 H   0  0  0  0  0  0  0  0  0  0  0  0
   -5.7630   15.3621   -4.0890 H   0  0  0  0  0  0  0  0  0  0  0  0
   -5.8673   13.6063   -3.9408 H   0  0  0  0  0  0  0  0  0  0  0  0
   -5.6327   13.7847   -1.4653 H   0  0  0  0  0  0  0  0  0  0  0  0
   -5.5638   15.5509   -1.5923 H   0  0  0  0  0  0  0  0  0  0  0  0
   -3.3824   14.9139    2.1783 H   0  0  0  0  0  0  0  0  0  0  0  0
    1.0151   14.4876   -0.8763 H   0  0  0  0  0  0  0  0  0  0  0  0
    1.0090   14.6379    0.8667 H   0  0  0  0  0  0  0  0  0  0  0  0
  1  3  1  0  0  0  0
  1  4  2  0  0  0  0
  2  3  2  0  0  0  0
  2 10  1  0  0  0  0
  3  9  1  0  0  0  0
  4  5  1  0  0  0  0
  4 11  1  0  0  0  0
  5 10  1  0  0  0  0
  5 12  2  0  0  0  0
  6  7  1  0  0  0  0
  7  8  1  0  0  0  0
  8  9  1  0  0  0  0
  9 13  1  0  0  0  0
  9 14  1  0  0  0  0
  1 15  1  0  0  0  0
  2 16  1  0  0  0  0
  6 17  1  0  0  0  0
  6 18  1  0  0  0  0
  6 19  1  0  0  0  0
  7 20  1  0  0  0  0
  7 21  1  0  0  0  0
  8 22  1  0  0  0  0
  8 23  1  0  0  0  0
 10 24  1  0  0  0  0
 11 25  1  0  0  0  0
 11 26  1  0  0  0  0
M  END
> <HYBRID receptor title>
5S18(A) > WOY(A-201)

> <HYBRID receptor filename>
experiments/data/docking/5s18.oedu

> <HYBRID Chemgauss4 score>
-6.699562

> <HYBRID receptor title>
5S18(A) > WOY(A-201)

> <HYBRID receptor filename>
experiments/data/docking/5s18.oedu

> <Dock Type>
Hybrid

$$$$
MOL0062
  -OEChem-07032415493D

 26 26  0     0  0  0  0  0  0999 V2000
   -2.1466   14.7432   -0.9422 C   0  0  0  0  0  0  0  0  0  0  0  0
   -4.0206   15.0245    0.5294 C   0  0  0  0  0  0  0  0  0  0  0  0
   -3.5733   14.8740   -0.7248 C   0  0  0  0  0  0  0  0  0  0  0  0
   -1.2571   14.7667    0.0653 C   0  0  0  0  0  0  0  0  0  0  0  0
   -1.7794   14.9368    1.4673 C   0  0  0  0  0  0  0  0  0  0  0  0
   -7.0772   14.0852   -3.3142 C   0  0  0  0  0  0  0  0  0  0  0  0
   -4.4701   14.8333   -1.9209 C   0  0  0  0  0  0  0  0  0  0  0  0
   -5.7778   13.3131   -3.4819 C   0  0  0  0  0  0  0  0  0  0  0  0
   -4.9067   13.4054   -2.2263 C   0  0  0  0  0  0  0  0  0  0  0  0
   -3.1542   15.0551    1.5905 N   0  0  0  0  0  0  0  0  0  0  0  0
    0.0939   14.6490   -0.0722 N   0  0  0  0  0  0  0  0  0  0  0  0
   -1.0149   14.9660    2.4300 O   0  0  0  0  0  0  0  0  0  0  0  0
   -1.8060   14.6225   -1.9671 H   0  0  0  0  0  0  0  0  0  0  0  0
   -5.0697   15.1289    0.7772 H   0  0  0  0  0  0  0  0  0  0  0  0
   -6.8676   15.1383   -3.0983 H   0  0  0  0  0  0  0  0  0  0  0  0
   -7.6814   14.0389   -4.2264 H   0  0  0  0  0  0  0  0  0  0  0  0
   -7.6698   13.6804   -2.4878 H   0  0  0  0  0  0  0  0  0  0  0  0
   -3.9025   15.2333   -2.7660 H   0  0  0  0  0  0  0  0  0  0  0  0
   -5.3302   15.4831   -1.7384 H   0  0  0  0  0  0  0  0  0  0  0  0
   -6.0091   12.2638   -3.6969 H   0  0  0  0  0  0  0  0  0  0  0  0
   -5.2374   13.7109   -4.3479 H   0  0  0  0  0  0  0  0  0  0  0  0
   -5.4511   12.9872   -1.3700 H   0  0  0  0  0  0  0  0  0  0  0  0
   -4.0097   12.7912   -2.3685 H   0  0  0  0  0  0  0  0  0  0  0  0
   -3.5427   15.1712    2.5219 H   0  0  0  0  0  0  0  0  0  0  0  0
    0.4737   14.5353   -0.9873 H   0  0  0  0  0  0  0  0  0  0  0  0
    0.6628   14.6801    0.7459 H   0  0  0  0  0  0  0  0  0  0  0  0
  1  3  1  0  0  0  0
  1  4  2  0  0  0  0
  2  3  2  0  0  0  0
  2 10  1  0  0  0  0
  3  7  1  0  0  0  0
  4  5  1  0  0  0  0
  4 11  1  0  0  0  0
  5 10  1  0  0  0  0
  5 12  2  0  0  0  0
  6  8  1  0  0  0  0
  7  9  1  0  0  0  0
  8  9  1  0  0  0  0
  1 13  1  0  0  0  0
  2 14  1  0  0  0  0
  6 15  1  0  0  0  0
  6 16  1  0  0  0  0
  6 17  1  0  0  0  0
  7 18  1  0  0  0  0
  7 19  1  0  0  0  0
  8 20  1  0  0  0  0
  8 21  1  0  0  0  0
  9 22  1  0  0  0  0
  9 23  1  0  0  0  0
 10 24  1  0  0  0  0
 11 25  1  0  0  0  0
 11 26  1  0  0  0  0
M  END
> <HYBRID receptor title>
5S18(A) > WOY(A-201)

> <HYBRID receptor filename>
experiments/data/docking/5s18.oedu

> <HYBRID Chemgauss4 score>
-6.695984

> <HYBRID receptor title>
5S18(A) > WOY(A-201)

> <HYBRID receptor filename>
experiments/data/docking/5s18.oedu

> <Dock Type>
Hybrid

$$$$
MOL0379
  -OEChem-07032415493D

 24 24  0     0  0  0  0  0  0999 V2000
   -2.5852   14.9552   -0.8945 C   0  0  0  0  0  0  0  0  0  0  0  0
   -4.1208   15.4987    0.8767 C   0  0  0  0  0  0  0  0  0  0  0  0
   -1.5830   14.6864   -0.0386 C   0  0  0  0  0  0  0  0  0  0  0  0
   -3.8886   15.3722   -0.4333 C   0  0  0  0  0  0  0  0  0  0  0  0
   -1.8511   14.8315    1.4386 C   0  0  0  0  0  0  0  0  0  0  0  0
   -5.7422   13.6616   -4.4723 C   0  0  0  0  0  0  0  0  0  0  0  0
   -5.9131   14.5407   -3.2461 C   0  0  0  0  0  0  0  0  0  0  0  0
   -4.5869   14.8051   -2.5497 C   0  0  0  0  0  0  0  0  0  0  0  0
   -3.1306   15.2363    1.7872 N   0  0  0  0  0  0  0  0  0  0  0  0
   -0.3287   14.2888   -0.3949 N   0  0  0  0  0  0  0  0  0  0  0  0
   -0.9724   14.5994    2.2671 O   0  0  0  0  0  0  0  0  0  0  0  0
   -4.8205   15.6158   -1.4112 O   0  0  0  0  0  0  0  0  0  0  0  0
   -2.4347   14.8629   -1.9664 H   0  0  0  0  0  0  0  0  0  0  0  0
   -5.0742   15.8071    1.2867 H   0  0  0  0  0  0  0  0  0  0  0  0
   -5.2820   12.7045   -4.2075 H   0  0  0  0  0  0  0  0  0  0  0  0
   -6.7075   13.4589   -4.9470 H   0  0  0  0  0  0  0  0  0  0  0  0
   -5.0994   14.1556   -5.2069 H   0  0  0  0  0  0  0  0  0  0  0  0
   -6.3750   15.4933   -3.5324 H   0  0  0  0  0  0  0  0  0  0  0  0
   -6.6101   14.0679   -2.5435 H   0  0  0  0  0  0  0  0  0  0  0  0
   -4.1245   13.8684   -2.2215 H   0  0  0  0  0  0  0  0  0  0  0  0
   -3.8936   15.3302   -3.2151 H   0  0  0  0  0  0  0  0  0  0  0  0
   -3.3464   15.3445    2.7738 H   0  0  0  0  0  0  0  0  0  0  0  0
   -0.1174   14.1829   -1.3638 H   0  0  0  0  0  0  0  0  0  0  0  0
    0.3405   14.1157    0.3234 H   0  0  0  0  0  0  0  0  0  0  0  0
  1  3  2  0  0  0  0
  1  4  1  0  0  0  0
  2  4  2  0  0  0  0
  2  9  1  0  0  0  0
  3  5  1  0  0  0  0
  3 10  1  0  0  0  0
  4 12  1  0  0  0  0
  5  9  1  0  0  0  0
  5 11  2  0  0  0  0
  6  7  1  0  0  0  0
  7  8  1  0  0  0  0
  8 12  1  0  0  0  0
  1 13  1  0  0  0  0
  2 14  1  0  0  0  0
  6 15  1  0  0  0  0
  6 16  1  0  0  0  0
  6 17  1  0  0  0  0
  7 18  1  0  0  0  0
  7 19  1  0  0  0  0
  8 20  1  0  0  0  0
  8 21  1  0  0  0  0
  9 22  1  0  0  0  0
 10 23  1  0  0  0  0
 10 24  1  0  0  0  0
M  END
> <HYBRID receptor title>
5S18(A) > WOY(A-201)

> <HYBRID receptor filename>
experiments/data/docking/5s18.oedu

> <HYBRID Chemgauss4 score>
-6.692292

> <HYBRID receptor title>
5S18(A) > WOY(A-201)

> <HYBRID receptor filename>
experiments/data/docking/5s18.oedu

> <Dock Type>
Hybrid

$$$$
MOL0010
  -OEChem-07032415493D

 20 20  0     0  0  0  0  0  0999 V2000
   -1.2440   14.7007   -1.1184 C   0  0  0  0  0  0  0  0  0  0  0  0
   -2.6801   14.9039   -1.0138 C   0  0  0  0  0  0  0  0  0  0  0  0
   -0.4296   14.6434   -0.0530 C   0  0  0  0  0  0  0  0  0  0  0  0
   -3.2295   15.0350    0.2111 C   0  0  0  0  0  0  0  0  0  0  0  0
   -1.0471   14.7973    1.3046 C   0  0  0  0  0  0  0  0  0  0  0  0
   -3.4067   14.9588   -2.3267 C   0  0  0  0  0  0  0  0  0  0  0  0
   -4.6864   15.2306    0.5144 C   0  0  0  0  0  0  0  0  0  0  0  0
   -2.4178   14.9813    1.3281 N   0  0  0  0  0  0  0  0  0  0  0  0
    0.9195   14.4558   -0.0964 N   0  0  0  0  0  0  0  0  0  0  0  0
   -0.3588   14.7583    2.3231 O   0  0  0  0  0  0  0  0  0  0  0  0
   -2.5499   14.8037   -3.3552 F   0  0  0  0  0  0  0  0  0  0  0  0
   -4.3343   13.9848   -2.4068 F   0  0  0  0  0  0  0  0  0  0  0  0
   -4.0317   16.1429   -2.4795 F   0  0  0  0  0  0  0  0  0  0  0  0
   -5.4127   15.2616   -0.6205 F   0  0  0  0  0  0  0  0  0  0  0  0
   -5.1591   14.2301    1.2836 F   0  0  0  0  0  0  0  0  0  0  0  0
   -4.8886   16.3906    1.1703 F   0  0  0  0  0  0  0  0  0  0  0  0
   -0.8285   14.5914   -2.1172 H   0  0  0  0  0  0  0  0  0  0  0  0
   -2.8646   15.0853    2.2351 H   0  0  0  0  0  0  0  0  0  0  0  0
    1.3600   14.3498   -0.9851 H   0  0  0  0  0  0  0  0  0  0  0  0
    1.4273   14.4300    0.7613 H   0  0  0  0  0  0  0  0  0  0  0  0
  1  2  1  0  0  0  0
  1  3  2  0  0  0  0
  2  4  2  0  0  0  0
  2  6  1  0  0  0  0
  3  5  1  0  0  0  0
  3  9  1  0  0  0  0
  4  7  1  0  0  0  0
  4  8  1  0  0  0  0
  5  8  1  0  0  0  0
  5 10  2  0  0  0  0
  6 11  1  0  0  0  0
  6 12  1  0  0  0  0
  6 13  1  0  0  0  0
  7 14  1  0  0  0  0
  7 15  1  0  0  0  0
  7 16  1  0  0  0  0
  1 17  1  0  0  0  0
  8 18  1  0  0  0  0
  9 19  1  0  0  0  0
  9 20  1  0  0  0  0
M  END
> <HYBRID receptor title>
5S18(A) > WOY(A-201)

> <HYBRID receptor filename>
experiments/data/docking/5s18.oedu

> <HYBRID Chemgauss4 score>
-6.689471

> <HYBRID receptor title>
5S18(A) > WOY(A-201)

> <HYBRID receptor filename>
experiments/data/docking/5s18.oedu

> <Dock Type>
Hybrid

$$$$
MOL0289
  -OEChem-07032415493D

 32 32  0     0  0  0  0  0  0999 V2000
   -1.9002   14.9326   -1.1675 C   0  0  0  0  0  0  0  0  0  0  0  0
   -3.8040   15.0144    0.2904 C   0  0  0  0  0  0  0  0  0  0  0  0
   -3.3323   15.0179   -0.9639 C   0  0  0  0  0  0  0  0  0  0  0  0
   -1.0291   14.8498   -0.1471 C   0  0  0  0  0  0  0  0  0  0  0  0
   -1.5786   14.8475    1.2548 C   0  0  0  0  0  0  0  0  0  0  0  0
   -6.9083   14.6880   -3.7191 C   0  0  0  0  0  0  0  0  0  0  0  0
   -3.4338   12.9260   -3.1390 C   0  0  0  0  0  0  0  0  0  0  0  0
   -5.4367   12.9491   -1.6548 C   0  0  0  0  0  0  0  0  0  0  0  0
   -4.2064   15.1056   -2.1725 C   0  0  0  0  0  0  0  0  0  0  0  0
   -5.6287   13.8982   -3.9672 C   0  0  0  0  0  0  0  0  0  0  0  0
   -4.6821   13.7428   -2.7446 C   0  0  0  0  0  0  0  0  0  0  0  0
   -2.9570   14.9321    1.3644 N   0  0  0  0  0  0  0  0  0  0  0  0
    0.3258   14.7671   -0.2713 N   0  0  0  0  0  0  0  0  0  0  0  0
   -0.8317   14.7739    2.2289 O   0  0  0  0  0  0  0  0  0  0  0  0
   -1.5397   14.9374   -2.1926 H   0  0  0  0  0  0  0  0  0  0  0  0
   -4.8588   15.0751    0.5284 H   0  0  0  0  0  0  0  0  0  0  0  0
   -6.6595   15.6842   -3.3363 H   0  0  0  0  0  0  0  0  0  0  0  0
   -7.4852   14.8264   -4.6381 H   0  0  0  0  0  0  0  0  0  0  0  0
   -7.5459   14.2025   -2.9756 H   0  0  0  0  0  0  0  0  0  0  0  0
   -2.8544   13.4419   -3.9139 H   0  0  0  0  0  0  0  0  0  0  0  0
   -2.7723   12.7724   -2.2790 H   0  0  0  0  0  0  0  0  0  0  0  0
   -3.7021   11.9424   -3.5365 H   0  0  0  0  0  0  0  0  0  0  0  0
   -6.3387   13.4833   -1.3328 H   0  0  0  0  0  0  0  0  0  0  0  0
   -4.8168   12.7908   -0.7672 H   0  0  0  0  0  0  0  0  0  0  0  0
   -5.7488   11.9662   -2.0254 H   0  0  0  0  0  0  0  0  0  0  0  0
   -3.6530   15.6548   -2.9459 H   0  0  0  0  0  0  0  0  0  0  0  0
   -5.0691   15.7358   -1.9252 H   0  0  0  0  0  0  0  0  0  0  0  0
   -5.9068   12.9074   -4.3491 H   0  0  0  0  0  0  0  0  0  0  0  0
   -5.0826   14.3894   -4.7842 H   0  0  0  0  0  0  0  0  0  0  0  0
   -3.3636   14.9331    2.2953 H   0  0  0  0  0  0  0  0  0  0  0  0
    0.7235   14.7665   -1.1859 H   0  0  0  0  0  0  0  0  0  0  0  0
    0.8796   14.7098    0.5557 H   0  0  0  0  0  0  0  0  0  0  0  0
  1  3  1  0  0  0  0
  1  4  2  0  0  0  0
  2  3  2  0  0  0  0
  2 12  1  0  0  0  0
  3  9  1  0  0  0  0
  4  5  1  0  0  0  0
  4 13  1  0  0  0  0
  5 12  1  0  0  0  0
  5 14  2  0  0  0  0
  6 10  1  0  0  0  0
  7 11  1  0  0  0  0
  8 11  1  0  0  0  0
  9 11  1  0  0  0  0
 10 11  1  0  0  0  0
  1 15  1  0  0  0  0
  2 16  1  0  0  0  0
  6 17  1  0  0  0  0
  6 18  1  0  0  0  0
  6 19  1  0  0  0  0
  7 20  1  0  0  0  0
  7 21  1  0  0  0  0
  7 22  1  0  0  0  0
  8 23  1  0  0  0  0
  8 24  1  0  0  0  0
  8 25  1  0  0  0  0
  9 26  1  0  0  0  0
  9 27  1  0  0  0  0
 10 28  1  0  0  0  0
 10 29  1  0  0  0  0
 12 30  1  0  0  0  0
 13 31  1  0  0  0  0
 13 32  1  0  0  0  0
M  END
> <HYBRID receptor title>
5S18(A) > WOY(A-201)

> <HYBRID receptor filename>
experiments/data/docking/5s18.oedu

> <HYBRID Chemgauss4 score>
-6.686036

> <HYBRID receptor title>
5S18(A) > WOY(A-201)

> <HYBRID receptor filename>
experiments/data/docking/5s18.oedu

> <Dock Type>
Hybrid

$$$$
MOL0091
  -OEChem-07032415493D

 30 31  0     0  0  0  0  0  0999 V2000
    1.0164   15.1262   -4.7874 C   0  0  0  0  0  0  0  0  0  0  0  0
    1.0422   13.8200   -4.2988 C   0  0  0  0  0  0  0  0  0  0  0  0
    0.5118   16.1569   -3.9945 C   0  0  0  0  0  0  0  0  0  0  0  0
    0.5637   13.5443   -3.0178 C   0  0  0  0  0  0  0  0  0  0  0  0
    0.0333   15.8813   -2.7135 C   0  0  0  0  0  0  0  0  0  0  0  0
    0.0590   14.5750   -2.2250 C   0  0  0  0  0  0  0  0  0  0  0  0
   -4.5386   15.3238   -0.5310 C   0  0  0  0  0  0  0  0  0  0  0  0
   -2.6678   14.5452   -1.8121 C   0  0  0  0  0  0  0  0  0  0  0  0
   -3.9691   14.8608   -1.7753 C   0  0  0  0  0  0  0  0  0  0  0  0
   -3.8106   15.4483    0.5904 C   0  0  0  0  0  0  0  0  0  0  0  0
   -2.3460   15.0899    0.5420 C   0  0  0  0  0  0  0  0  0  0  0  0
   -0.4563   14.2787   -0.8458 C   0  0  0  0  0  0  0  0  0  0  0  0
   -4.8748   14.7595   -2.9620 C   0  0  0  0  0  0  0  0  0  0  0  0
   -1.8593   14.6500   -0.6957 N   0  0  0  0  0  0  0  0  0  0  0  0
   -4.2921   15.8794    1.7917 N   0  0  0  0  0  0  0  0  0  0  0  0
   -1.6622   15.1964    1.5608 O   0  0  0  0  0  0  0  0  0  0  0  0
   -6.1310   15.1381   -2.6463 F   0  0  0  0  0  0  0  0  0  0  0  0
   -4.4481   15.5473   -3.9709 F   0  0  0  0  0  0  0  0  0  0  0  0
   -4.9293   13.4925   -3.4233 F   0  0  0  0  0  0  0  0  0  0  0  0
    1.3889   15.3409   -5.7847 H   0  0  0  0  0  0  0  0  0  0  0  0
    1.4355   13.0174   -4.9159 H   0  0  0  0  0  0  0  0  0  0  0  0
    0.4914   17.1740   -4.3748 H   0  0  0  0  0  0  0  0  0  0  0  0
    0.5877   12.5234   -2.6458 H   0  0  0  0  0  0  0  0  0  0  0  0
   -0.3571   16.6911   -2.1028 H   0  0  0  0  0  0  0  0  0  0  0  0
   -5.5959   15.5750   -0.5254 H   0  0  0  0  0  0  0  0  0  0  0  0
   -2.1906   14.1927   -2.7206 H   0  0  0  0  0  0  0  0  0  0  0  0
   -0.3636   13.2111   -0.6203 H   0  0  0  0  0  0  0  0  0  0  0  0
    0.1167   14.8223   -0.0873 H   0  0  0  0  0  0  0  0  0  0  0  0
   -5.2559   16.1247    1.8596 H   0  0  0  0  0  0  0  0  0  0  0  0
   -3.6660   15.9358    2.5647 H   0  0  0  0  0  0  0  0  0  0  0  0
  1  2  1  0  0  0  0
  1  3  2  0  0  0  0
  2  4  2  0  0  0  0
  3  5  1  0  0  0  0
  4  6  1  0  0  0  0
  5  6  2  0  0  0  0
  6 12  1  0  0  0  0
  7  9  1  0  0  0  0
  7 10  2  0  0  0  0
  8  9  2  0  0  0  0
  8 14  1  0  0  0  0
  9 13  1  0  0  0  0
 10 11  1  0  0  0  0
 10 15  1  0  0  0  0
 11 14  1  0  0  0  0
 11 16  2  0  0  0  0
 12 14  1  0  0  0  0
 13 17  1  0  0  0  0
 13 18  1  0  0  0  0
 13 19  1  0  0  0  0
  1 20  1  0  0  0  0
  2 21  1  0  0  0  0
  3 22  1  0  0  0  0
  4 23  1  0  0  0  0
  5 24  1  0  0  0  0
  7 25  1  0  0  0  0
  8 26  1  0  0  0  0
 12 27  1  0  0  0  0
 12 28  1  0  0  0  0
 15 29  1  0  0  0  0
 15 30  1  0  0  0  0
M  END
> <HYBRID receptor title>
5S18(A) > WOY(A-201)

> <HYBRID receptor filename>
experiments/data/docking/5s18.oedu

> <HYBRID Chemgauss4 score>
-6.682069

> <HYBRID receptor title>
5S18(A) > WOY(A-201)

> <HYBRID receptor filename>
experiments/data/docking/5s18.oedu

> <Dock Type>
Hybrid

$$$$
MOL0287
  -OEChem-07032415493D

 29 29  0     0  0  0  0  0  0999 V2000
   -3.9971   14.9349   -1.4640 C   0  0  0  0  0  0  0  0  0  0  0  0
   -5.2431   15.0921    0.5803 C   0  0  0  0  0  0  0  0  0  0  0  0
   -5.2598   14.9686   -0.7539 C   0  0  0  0  0  0  0  0  0  0  0  0
   -2.8121   15.0223   -0.8355 C   0  0  0  0  0  0  0  0  0  0  0  0
   -2.8143   15.1606    0.6640 C   0  0  0  0  0  0  0  0  0  0  0  0
    0.6574   14.5981   -0.5729 C   0  0  0  0  0  0  0  0  0  0  0  0
   -1.6658   15.1055   -3.8859 C   0  0  0  0  0  0  0  0  0  0  0  0
   -0.6069   13.9684   -1.1322 C   0  0  0  0  0  0  0  0  0  0  0  0
   -1.3016   15.8326   -2.6028 C   0  0  0  0  0  0  0  0  0  0  0  0
   -6.5172   14.8631   -1.5566 C   0  0  0  0  0  0  0  0  0  0  0  0
   -4.0611   15.1851    1.2674 N   0  0  0  0  0  0  0  0  0  0  0  0
   -1.5926   14.9967   -1.4439 N   0  0  0  0  0  0  0  0  0  0  0  0
   -1.7622   15.2450    1.2948 O   0  0  0  0  0  0  0  0  0  0  0  0
   -6.2439   14.7486   -2.8734 F   0  0  0  0  0  0  0  0  0  0  0  0
   -7.2418   13.7848   -1.1913 F   0  0  0  0  0  0  0  0  0  0  0  0
   -7.2925   15.9554   -1.3900 F   0  0  0  0  0  0  0  0  0  0  0  0
   -4.0341   14.8346   -2.5455 H   0  0  0  0  0  0  0  0  0  0  0  0
   -6.1409   15.1254    1.1850 H   0  0  0  0  0  0  0  0  0  0  0  0
    0.4271   15.1610    0.3371 H   0  0  0  0  0  0  0  0  0  0  0  0
    1.1084   15.2902   -1.2920 H   0  0  0  0  0  0  0  0  0  0  0  0
    1.4009   13.8349   -0.3188 H   0  0  0  0  0  0  0  0  0  0  0  0
   -2.7305   14.8516   -3.8858 H   0  0  0  0  0  0  0  0  0  0  0  0
   -1.0977   14.1750   -3.9905 H   0  0  0  0  0  0  0  0  0  0  0  0
   -1.4674   15.7289   -4.7643 H   0  0  0  0  0  0  0  0  0  0  0  0
   -0.3686   13.4075   -2.0417 H   0  0  0  0  0  0  0  0  0  0  0  0
   -1.0255   13.2655   -0.4046 H   0  0  0  0  0  0  0  0  0  0  0  0
   -0.2359   16.0830   -2.6104 H   0  0  0  0  0  0  0  0  0  0  0  0
   -1.8656   16.7684   -2.5328 H   0  0  0  0  0  0  0  0  0  0  0  0
   -4.1015   15.2773    2.2782 H   0  0  0  0  0  0  0  0  0  0  0  0
  1  3  1  0  0  0  0
  1  4  2  0  0  0  0
  2  3  2  0  0  0  0
  2 11  1  0  0  0  0
  3 10  1  0  0  0  0
  4  5  1  0  0  0  0
  4 12  1  0  0  0  0
  5 11  1  0  0  0  0
  5 13  2  0  0  0  0
  6  8  1  0  0  0  0
  7  9  1  0  0  0  0
  8 12  1  0  0  0  0
  9 12  1  0  0  0  0
 10 14  1  0  0  0  0
 10 15  1  0  0  0  0
 10 16  1  0  0  0  0
  1 17  1  0  0  0  0
  2 18  1  0  0  0  0
  6 19  1  0  0  0  0
  6 20  1  0  0  0  0
  6 21  1  0  0  0  0
  7 22  1  0  0  0  0
  7 23  1  0  0  0  0
  7 24  1  0  0  0  0
  8 25  1  0  0  0  0
  8 26  1  0  0  0  0
  9 27  1  0  0  0  0
  9 28  1  0  0  0  0
 11 29  1  0  0  0  0
M  END
> <HYBRID receptor title>
5S18(A) > WOY(A-201)

> <HYBRID receptor filename>
experiments/data/docking/5s18.oedu

> <HYBRID Chemgauss4 score>
-6.681178

> <HYBRID receptor title>
5S18(A) > WOY(A-201)

> <HYBRID receptor filename>
experiments/data/docking/5s18.oedu

> <Dock Type>
Hybrid

$$$$
MOL0332
  -OEChem-07032415493D

 25 25  0     0  0  0  0  0  0999 V2000
   -3.5335   14.2266   -4.0287 C   0  0  0  0  0  0  0  0  0  0  0  0
   -4.0999   14.4260   -2.9892 C   0  0  0  0  0  0  0  0  0  0  0  0
   -2.3857   14.6039   -0.9653 C   0  0  0  0  0  0  0  0  0  0  0  0
   -4.0970   14.9802    0.6737 C   0  0  0  0  0  0  0  0  0  0  0  0
   -3.7816   14.7621   -0.6103 C   0  0  0  0  0  0  0  0  0  0  0  0
   -1.3974   14.6672   -0.0562 C   0  0  0  0  0  0  0  0  0  0  0  0
   -1.7721   14.9131    1.3813 C   0  0  0  0  0  0  0  0  0  0  0  0
   -5.7637   13.5144   -1.4168 C   0  0  0  0  0  0  0  0  0  0  0  0
   -5.5880   15.9869   -1.8077 C   0  0  0  0  0  0  0  0  0  0  0  0
   -4.7966   14.6725   -1.7050 C   0  0  0  0  0  0  0  0  0  0  0  0
   -3.1262   15.0534    1.6380 N   0  0  0  0  0  0  0  0  0  0  0  0
   -0.0684   14.5269   -0.3248 N   0  0  0  0  0  0  0  0  0  0  0  0
   -0.9127   14.9812    2.2582 O   0  0  0  0  0  0  0  0  0  0  0  0
   -3.0314   14.0495   -4.9523 H   0  0  0  0  0  0  0  0  0  0  0  0
   -2.1527   14.4283   -2.0120 H   0  0  0  0  0  0  0  0  0  0  0  0
   -5.1145   15.1091    1.0217 H   0  0  0  0  0  0  0  0  0  0  0  0
   -6.2985   13.6640   -0.4705 H   0  0  0  0  0  0  0  0  0  0  0  0
   -6.5147   13.4161   -2.2095 H   0  0  0  0  0  0  0  0  0  0  0  0
   -5.2348   12.5565   -1.3402 H   0  0  0  0  0  0  0  0  0  0  0  0
   -6.1212   16.2082   -0.8738 H   0  0  0  0  0  0  0  0  0  0  0  0
   -4.9286   16.8391   -2.0135 H   0  0  0  0  0  0  0  0  0  0  0  0
   -6.3325   15.9422   -2.6120 H   0  0  0  0  0  0  0  0  0  0  0  0
   -3.4164   15.2204    2.5970 H   0  0  0  0  0  0  0  0  0  0  0  0
    0.2148   14.3633   -1.2669 H   0  0  0  0  0  0  0  0  0  0  0  0
    0.5815   14.5921    0.4284 H   0  0  0  0  0  0  0  0  0  0  0  0
  1  2  3  0  0  0  0
  2 10  1  0  0  0  0
  3  5  1  0  0  0  0
  3  6  2  0  0  0  0
  4  5  2  0  0  0  0
  4 11  1  0  0  0  0
  5 10  1  0  0  0  0
  6  7  1  0  0  0  0
  6 12  1  0  0  0  0
  7 11  1  0  0  0  0
  7 13  2  0  0  0  0
  8 10  1  0  0  0  0
  9 10  1  0  0  0  0
  1 14  1  0  0  0  0
  3 15  1  0  0  0  0
  4 16  1  0  0  0  0
  8 17  1  0  0  0  0
  8 18  1  0  0  0  0
  8 19  1  0  0  0  0
  9 20  1  0  0  0  0
  9 21  1  0  0  0  0
  9 22  1  0  0  0  0
 11 23  1  0  0  0  0
 12 24  1  0  0  0  0
 12 25  1  0  0  0  0
M  END
> <HYBRID receptor title>
5S18(A) > WOY(A-201)

> <HYBRID receptor filename>
experiments/data/docking/5s18.oedu

> <HYBRID Chemgauss4 score>
-6.673930

> <HYBRID receptor title>
5S18(A) > WOY(A-201)

> <HYBRID receptor filename>
experiments/data/docking/5s18.oedu

> <Dock Type>
Hybrid

$$$$
MOL0034
  -OEChem-07032415493D

 14 14  0     0  0  0  0  0  0999 V2000
   -3.2310   14.5582   -0.9865 C   0  0  0  0  0  0  0  0  0  0  0  0
   -4.8059   14.8722    0.7985 C   0  0  0  0  0  0  0  0  0  0  0  0
   -2.1697   14.6991   -0.1725 C   0  0  0  0  0  0  0  0  0  0  0  0
   -4.5914   14.6448   -0.5029 C   0  0  0  0  0  0  0  0  0  0  0  0
   -2.4257   14.9549    1.2897 C   0  0  0  0  0  0  0  0  0  0  0  0
   -3.7567   15.0223    1.6679 N   0  0  0  0  0  0  0  0  0  0  0  0
   -0.8645   14.6274   -0.5592 N   0  0  0  0  0  0  0  0  0  0  0  0
   -1.4953   15.0921    2.0821 O   0  0  0  0  0  0  0  0  0  0  0  0
   -5.9832   14.4347   -1.7237 Br  0  0  0  0  0  0  0  0  0  0  0  0
   -3.0755   14.3727   -2.0461 H   0  0  0  0  0  0  0  0  0  0  0  0
   -5.7923   14.9507    1.2395 H   0  0  0  0  0  0  0  0  0  0  0  0
   -3.9780   15.1928    2.6444 H   0  0  0  0  0  0  0  0  0  0  0  0
   -0.6587   14.4572   -1.5200 H   0  0  0  0  0  0  0  0  0  0  0  0
   -0.1540   14.7472    0.1298 H   0  0  0  0  0  0  0  0  0  0  0  0
  1  3  2  0  0  0  0
  1  4  1  0  0  0  0
  2  4  2  0  0  0  0
  2  6  1  0  0  0  0
  3  5  1  0  0  0  0
  3  7  1  0  0  0  0
  4  9  1  0  0  0  0
  5  6  1  0  0  0  0
  5  8  2  0  0  0  0
  1 10  1  0  0  0  0
  2 11  1  0  0  0  0
  6 12  1  0  0  0  0
  7 13  1  0  0  0  0
  7 14  1  0  0  0  0
M  END
> <HYBRID receptor title>
5S18(A) > WOY(A-201)

> <HYBRID receptor filename>
experiments/data/docking/5s18.oedu

> <HYBRID Chemgauss4 score>
-6.671136

> <HYBRID receptor title>
5S18(A) > WOY(A-201)

> <HYBRID receptor filename>
experiments/data/docking/5s18.oedu

> <Dock Type>
Hybrid

$$$$
MOL0004
  -OEChem-07032415493D

 20 20  0     0  0  0  0  0  0999 V2000
   -3.0406   15.1037   -0.8138 C   0  0  0  0  0  0  0  0  0  0  0  0
   -4.5142   15.2364    1.0750 C   0  0  0  0  0  0  0  0  0  0  0  0
   -4.3708   15.2473   -0.2573 C   0  0  0  0  0  0  0  0  0  0  0  0
   -1.9475   14.9599   -0.0449 C   0  0  0  0  0  0  0  0  0  0  0  0
   -2.1293   14.9503    1.4499 C   0  0  0  0  0  0  0  0  0  0  0  0
   -5.5146   15.4005   -1.2086 C   0  0  0  0  0  0  0  0  0  0  0  0
   -6.1128   14.0693   -1.6001 C   0  0  0  0  0  0  0  0  0  0  0  0
   -3.4310   15.0929    1.9018 N   0  0  0  0  0  0  0  0  0  0  0  0
   -0.6720   14.8206   -0.5051 N   0  0  0  0  0  0  0  0  0  0  0  0
   -1.1674   14.8222    2.2051 O   0  0  0  0  0  0  0  0  0  0  0  0
   -5.2095   13.2790   -2.2186 F   0  0  0  0  0  0  0  0  0  0  0  0
   -7.1711   14.2223   -2.4237 F   0  0  0  0  0  0  0  0  0  0  0  0
   -6.5444   13.4107   -0.5002 F   0  0  0  0  0  0  0  0  0  0  0  0
   -2.9475   15.1157   -1.8965 H   0  0  0  0  0  0  0  0  0  0  0  0
   -5.4721   15.3379    1.5700 H   0  0  0  0  0  0  0  0  0  0  0  0
   -5.1597   15.9193   -2.1039 H   0  0  0  0  0  0  0  0  0  0  0  0
   -6.2775   16.0292   -0.7412 H   0  0  0  0  0  0  0  0  0  0  0  0
   -3.5919   15.0909    2.9048 H   0  0  0  0  0  0  0  0  0  0  0  0
   -0.5157   14.8230   -1.4901 H   0  0  0  0  0  0  0  0  0  0  0  0
    0.0672   14.7205    0.1562 H   0  0  0  0  0  0  0  0  0  0  0  0
  1  3  1  0  0  0  0
  1  4  2  0  0  0  0
  2  3  2  0  0  0  0
  2  8  1  0  0  0  0
  3  6  1  0  0  0  0
  4  5  1  0  0  0  0
  4  9  1  0  0  0  0
  5  8  1  0  0  0  0
  5 10  2  0  0  0  0
  6  7  1  0  0  0  0
  7 11  1  0  0  0  0
  7 12  1  0  0  0  0
  7 13  1  0  0  0  0
  1 14  1  0  0  0  0
  2 15  1  0  0  0  0
  6 16  1  0  0  0  0
  6 17  1  0  0  0  0
  8 18  1  0  0  0  0
  9 19  1  0  0  0  0
  9 20  1  0  0  0  0
M  END
> <HYBRID receptor title>
5S18(A) > WOY(A-201)

> <HYBRID receptor filename>
experiments/data/docking/5s18.oedu

> <HYBRID Chemgauss4 score>
-6.670494

> <HYBRID receptor title>
5S18(A) > WOY(A-201)

> <HYBRID receptor filename>
experiments/data/docking/5s18.oedu

> <Dock Type>
Hybrid

$$$$
MOL0001
  -OEChem-07032415493D

 17 17  0     0  0  0  0  0  0999 V2000
   -2.5598   14.7634   -0.9796 C   0  0  0  0  0  0  0  0  0  0  0  0
   -4.2236   15.0438    0.7263 C   0  0  0  0  0  0  0  0  0  0  0  0
   -3.9448   14.9014   -0.5767 C   0  0  0  0  0  0  0  0  0  0  0  0
   -1.5462   14.7725   -0.0966 C   0  0  0  0  0  0  0  0  0  0  0  0
   -1.8798   14.9337    1.3629 C   0  0  0  0  0  0  0  0  0  0  0  0
   -4.9904   14.8768   -1.6458 C   0  0  0  0  0  0  0  0  0  0  0  0
   -3.2259   15.0597    1.6654 N   0  0  0  0  0  0  0  0  0  0  0  0
   -0.2256   14.6473   -0.4103 N   0  0  0  0  0  0  0  0  0  0  0  0
   -0.9960   14.9497    2.2177 O   0  0  0  0  0  0  0  0  0  0  0  0
   -4.4334   14.7222   -2.8655 F   0  0  0  0  0  0  0  0  0  0  0  0
   -5.8585   13.8608   -1.4578 F   0  0  0  0  0  0  0  0  0  0  0  0
   -5.6984   16.0260   -1.6587 F   0  0  0  0  0  0  0  0  0  0  0  0
   -2.3567   14.6494   -2.0410 H   0  0  0  0  0  0  0  0  0  0  0  0
   -5.2305   15.1528    1.1097 H   0  0  0  0  0  0  0  0  0  0  0  0
   -3.4886   15.1702    2.6404 H   0  0  0  0  0  0  0  0  0  0  0  0
    0.0306   14.5392   -1.3680 H   0  0  0  0  0  0  0  0  0  0  0  0
    0.4453   14.6677    0.3268 H   0  0  0  0  0  0  0  0  0  0  0  0
  1  3  1  0  0  0  0
  1  4  2  0  0  0  0
  2  3  2  0  0  0  0
  2  7  1  0  0  0  0
  3  6  1  0  0  0  0
  4  5  1  0  0  0  0
  4  8  1  0  0  0  0
  5  7  1  0  0  0  0
  5  9  2  0  0  0  0
  6 10  1  0  0  0  0
  6 11  1  0  0  0  0
  6 12  1  0  0  0  0
  1 13  1  0  0  0  0
  2 14  1  0  0  0  0
  7 15  1  0  0  0  0
  8 16  1  0  0  0  0
  8 17  1  0  0  0  0
M  END
> <HYBRID receptor title>
5S18(A) > WOY(A-201)

> <HYBRID receptor filename>
experiments/data/docking/5s18.oedu

> <HYBRID Chemgauss4 score>
-6.669536

> <HYBRID receptor title>
5S18(A) > WOY(A-201)

> <HYBRID receptor filename>
experiments/data/docking/5s18.oedu

> <Dock Type>
Hybrid

$$$$
MOL0267
  -OEChem-07032415493D

 32 32  0     0  0  0  0  0  0999 V2000
   -1.5757   14.6167   -0.8709 C   0  0  0  0  0  0  0  0  0  0  0  0
   -3.4631   14.7313    0.6059 C   0  0  0  0  0  0  0  0  0  0  0  0
   -3.0072   14.5965   -0.6469 C   0  0  0  0  0  0  0  0  0  0  0  0
   -0.6900   14.7649    0.1293 C   0  0  0  0  0  0  0  0  0  0  0  0
   -1.2220   14.9149    1.5300 C   0  0  0  0  0  0  0  0  0  0  0  0
   -7.4971   15.5287   -0.6885 C   0  0  0  0  0  0  0  0  0  0  0  0
   -3.6649   15.5787   -2.8221 C   0  0  0  0  0  0  0  0  0  0  0  0
   -3.5268   13.0980   -2.5211 C   0  0  0  0  0  0  0  0  0  0  0  0
   -6.0412   15.7026   -1.0974 C   0  0  0  0  0  0  0  0  0  0  0  0
   -5.3731   14.3482   -1.3643 C   0  0  0  0  0  0  0  0  0  0  0  0
   -3.9058   14.4241   -1.8441 C   0  0  0  0  0  0  0  0  0  0  0  0
   -2.6009   14.8854    1.6597 N   0  0  0  0  0  0  0  0  0  0  0  0
    0.6653   14.7919   -0.0146 N   0  0  0  0  0  0  0  0  0  0  0  0
   -0.4612   15.0538    2.4861 O   0  0  0  0  0  0  0  0  0  0  0  0
   -1.2281   14.5061   -1.8946 H   0  0  0  0  0  0  0  0  0  0  0  0
   -4.5163   14.7270    0.8583 H   0  0  0  0  0  0  0  0  0  0  0  0
   -7.5810   14.9077    0.2098 H   0  0  0  0  0  0  0  0  0  0  0  0
   -7.9662   16.4965   -0.4828 H   0  0  0  0  0  0  0  0  0  0  0  0
   -8.0595   15.0425   -1.4903 H   0  0  0  0  0  0  0  0  0  0  0  0
   -4.3051   15.4843   -3.7083 H   0  0  0  0  0  0  0  0  0  0  0  0
   -3.8818   16.5454   -2.3544 H   0  0  0  0  0  0  0  0  0  0  0  0
   -2.6320   15.5997   -3.1858 H   0  0  0  0  0  0  0  0  0  0  0  0
   -4.1470   12.9103   -3.4055 H   0  0  0  0  0  0  0  0  0  0  0  0
   -3.6703   12.2493   -1.8420 H   0  0  0  0  0  0  0  0  0  0  0  0
   -2.4791   13.1011   -2.8407 H   0  0  0  0  0  0  0  0  0  0  0  0
   -6.0064   16.3279   -1.9965 H   0  0  0  0  0  0  0  0  0  0  0  0
   -5.5130   16.2396   -0.3020 H   0  0  0  0  0  0  0  0  0  0  0  0
   -5.4191   13.7503   -0.4436 H   0  0  0  0  0  0  0  0  0  0  0  0
   -5.9691   13.8094   -2.1130 H   0  0  0  0  0  0  0  0  0  0  0  0
   -2.9959   14.9837    2.5904 H   0  0  0  0  0  0  0  0  0  0  0  0
    1.0515   14.6956   -0.9290 H   0  0  0  0  0  0  0  0  0  0  0  0
    1.2307   14.9074    0.7983 H   0  0  0  0  0  0  0  0  0  0  0  0
  1  3  1  0  0  0  0
  1  4  2  0  0  0  0
  2  3  2  0  0  0  0
  2 12  1  0  0  0  0
  3 11  1  0  0  0  0
  4  5  1  0  0  0  0
  4 13  1  0  0  0  0
  5 12  1  0  0  0  0
  5 14  2  0  0  0  0
  6  9  1  0  0  0  0
  7 11  1  0  0  0  0
  8 11  1  0  0  0  0
  9 10  1  0  0  0  0
 10 11  1  0  0  0  0
  1 15  1  0  0  0  0
  2 16  1  0  0  0  0
  6 17  1  0  0  0  0
  6 18  1  0  0  0  0
  6 19  1  0  0  0  0
  7 20  1  0  0  0  0
  7 21  1  0  0  0  0
  7 22  1  0  0  0  0
  8 23  1  0  0  0  0
  8 24  1  0  0  0  0
  8 25  1  0  0  0  0
  9 26  1  0  0  0  0
  9 27  1  0  0  0  0
 10 28  1  0  0  0  0
 10 29  1  0  0  0  0
 12 30  1  0  0  0  0
 13 31  1  0  0  0  0
 13 32  1  0  0  0  0
M  END
> <HYBRID receptor title>
5S18(A) > WOY(A-201)

> <HYBRID receptor filename>
experiments/data/docking/5s18.oedu

> <HYBRID Chemgauss4 score>
-6.657981

> <HYBRID receptor title>
5S18(A) > WOY(A-201)

> <HYBRID receptor filename>
experiments/data/docking/5s18.oedu

> <Dock Type>
Hybrid

$$$$
MOL0277
  -OEChem-07032415493D

 26 26  0     1  0  0  0  0  0999 V2000
   -3.1480   14.6278   -1.0314 C   0  0  0  0  0  0  0  0  0  0  0  0
   -4.5887   14.7220    0.8849 C   0  0  0  0  0  0  0  0  0  0  0  0
   -4.4744   14.6527   -0.4484 C   0  0  0  0  0  0  0  0  0  0  0  0
   -2.0303   14.6712   -0.2859 C   0  0  0  0  0  0  0  0  0  0  0  0
   -2.1796   14.7491    1.2105 C   0  0  0  0  0  0  0  0  0  0  0  0
   -0.6431   13.2693   -2.7861 C   0  0  0  0  0  0  0  0  0  0  0  0
    0.1725   15.7460   -0.5193 C   0  0  0  0  0  0  0  0  0  0  0  0
   -0.1808   13.4424   -1.3495 C   0  0  0  0  0  0  0  0  0  0  0  0
   -5.6471   14.5993   -1.3749 C   0  0  0  0  0  0  0  0  0  0  0  0
   -3.4797   14.7687    1.6885 N   0  0  0  0  0  0  0  0  0  0  0  0
   -0.7568   14.6511   -0.7716 N   0  0  3  0  0  0  0  0  0  0  0  0
   -1.1943   14.7914    1.9450 O   0  0  0  0  0  0  0  0  0  0  0  0
   -5.2459   14.5337   -2.6620 F   0  0  0  0  0  0  0  0  0  0  0  0
   -6.4168   13.5186   -1.1282 F   0  0  0  0  0  0  0  0  0  0  0  0
   -6.4224   15.6960   -1.2403 F   0  0  0  0  0  0  0  0  0  0  0  0
   -3.0787   14.5718   -2.1144 H   0  0  0  0  0  0  0  0  0  0  0  0
   -5.5417   14.7450    1.3989 H   0  0  0  0  0  0  0  0  0  0  0  0
   -0.3396   14.1329   -3.3862 H   0  0  0  0  0  0  0  0  0  0  0  0
   -1.7334   13.1844   -2.8454 H   0  0  0  0  0  0  0  0  0  0  0  0
   -0.2044   12.3731   -3.2380 H   0  0  0  0  0  0  0  0  0  0  0  0
    1.1396   15.5457   -0.9894 H   0  0  0  0  0  0  0  0  0  0  0  0
   -0.2267   16.6809   -0.9227 H   0  0  0  0  0  0  0  0  0  0  0  0
    0.3243   15.8722    0.5562 H   0  0  0  0  0  0  0  0  0  0  0  0
   -0.4879   12.5753   -0.7560 H   0  0  0  0  0  0  0  0  0  0  0  0
    0.9119   13.5024   -1.3152 H   0  0  0  0  0  0  0  0  0  0  0  0
   -3.6191   14.8208    2.6933 H   0  0  0  0  0  0  0  0  0  0  0  0
  1  3  1  0  0  0  0
  1  4  2  0  0  0  0
  2  3  2  0  0  0  0
  2 10  1  0  0  0  0
  3  9  1  0  0  0  0
  4  5  1  0  0  0  0
  4 11  1  0  0  0  0
  5 10  1  0  0  0  0
  5 12  2  0  0  0  0
  6  8  1  0  0  0  0
  7 11  1  0  0  0  0
  8 11  1  0  0  0  0
  9 13  1  0  0  0  0
  9 14  1  0  0  0  0
  9 15  1  0  0  0  0
  1 16  1  0  0  0  0
  2 17  1  0  0  0  0
  6 18  1  0  0  0  0
  6 19  1  0  0  0  0
  6 20  1  0  0  0  0
  7 21  1  0  0  0  0
  7 22  1  0  0  0  0
  7 23  1  0  0  0  0
  8 24  1  0  0  0  0
  8 25  1  0  0  0  0
 10 26  1  0  0  0  0
M  END
> <HYBRID receptor title>
5S18(A) > WOY(A-201)

> <HYBRID receptor filename>
experiments/data/docking/5s18.oedu

> <HYBRID Chemgauss4 score>
-6.656196

> <HYBRID receptor title>
5S18(A) > WOY(A-201)

> <HYBRID receptor filename>
experiments/data/docking/5s18.oedu

> <Dock Type>
Hybrid

$$$$
MOL0177
  -OEChem-07032415493D

 27 28  0     0  0  0  0  0  0999 V2000
    0.4525   15.0007   -0.0405 C   0  0  0  0  0  0  0  0  0  0  0  0
   -0.8649   15.0412    0.4163 C   0  0  0  0  0  0  0  0  0  0  0  0
    0.7248   14.5958   -1.3472 C   0  0  0  0  0  0  0  0  0  0  0  0
   -1.6374   14.2722   -1.7400 C   0  0  0  0  0  0  0  0  0  0  0  0
   -1.9097   14.6772   -0.4333 C   0  0  0  0  0  0  0  0  0  0  0  0
   -0.3200   14.2318   -2.1968 C   0  0  0  0  0  0  0  0  0  0  0  0
   -4.4282   14.9832   -0.8135 C   0  0  0  0  0  0  0  0  0  0  0  0
   -3.5124   14.5019    1.3495 C   0  0  0  0  0  0  0  0  0  0  0  0
   -3.2833   14.7198    0.0438 C   0  0  0  0  0  0  0  0  0  0  0  0
   -5.6915   15.0187   -0.3547 C   0  0  0  0  0  0  0  0  0  0  0  0
   -5.9184   14.7728    1.1117 C   0  0  0  0  0  0  0  0  0  0  0  0
   -0.0286   13.7991   -3.5939 C   0  0  0  0  0  0  0  0  0  0  0  0
   -4.7827   14.5285    1.8641 N   0  0  0  0  0  0  0  0  0  0  0  0
   -6.7996   15.2592   -1.1115 N   0  0  0  0  0  0  0  0  0  0  0  0
   -7.0503   14.7931    1.5919 O   0  0  0  0  0  0  0  0  0  0  0  0
    1.3011   13.8069   -3.9059 F   0  0  0  0  0  0  0  0  0  0  0  0
   -0.6275   14.5962   -4.5261 F   0  0  0  0  0  0  0  0  0  0  0  0
   -0.4524   12.5302   -3.8702 F   0  0  0  0  0  0  0  0  0  0  0  0
    1.2655   15.2846    0.6213 H   0  0  0  0  0  0  0  0  0  0  0  0
   -1.0615   15.3591    1.4375 H   0  0  0  0  0  0  0  0  0  0  0  0
    1.7539   14.5671   -1.6954 H   0  0  0  0  0  0  0  0  0  0  0  0
   -2.4476   13.9868   -2.4079 H   0  0  0  0  0  0  0  0  0  0  0  0
   -4.2258   15.1548   -1.8678 H   0  0  0  0  0  0  0  0  0  0  0  0
   -2.7276   14.2956    2.0685 H   0  0  0  0  0  0  0  0  0  0  0  0
   -4.8867   14.3563    2.8598 H   0  0  0  0  0  0  0  0  0  0  0  0
   -6.6852   15.4248   -2.0883 H   0  0  0  0  0  0  0  0  0  0  0  0
   -7.6915   15.2624   -0.6664 H   0  0  0  0  0  0  0  0  0  0  0  0
  1  2  2  0  0  0  0
  1  3  1  0  0  0  0
  2  5  1  0  0  0  0
  3  6  2  0  0  0  0
  4  5  2  0  0  0  0
  4  6  1  0  0  0  0
  5  9  1  0  0  0  0
  6 12  1  0  0  0  0
  7  9  1  0  0  0  0
  7 10  2  0  0  0  0
  8  9  2  0  0  0  0
  8 13  1  0  0  0  0
 10 11  1  0  0  0  0
 10 14  1  0  0  0  0
 11 13  1  0  0  0  0
 11 15  2  0  0  0  0
 12 16  1  0  0  0  0
 12 17  1  0  0  0  0
 12 18  1  0  0  0  0
  1 19  1  0  0  0  0
  2 20  1  0  0  0  0
  3 21  1  0  0  0  0
  4 22  1  0  0  0  0
  7 23  1  0  0  0  0
  8 24  1  0  0  0  0
 13 25  1  0  0  0  0
 14 26  1  0  0  0  0
 14 27  1  0  0  0  0
M  END
> <HYBRID receptor title>
5S18(A) > WOY(A-201)

> <HYBRID receptor filename>
experiments/data/docking/5s18.oedu

> <HYBRID Chemgauss4 score>
-6.648698

> <HYBRID receptor title>
5S18(A) > WOY(A-201)

> <HYBRID receptor filename>
experiments/data/docking/5s18.oedu

> <Dock Type>
Hybrid

$$$$
MOL0310
  -OEChem-07032415493D

 29 30  0     0  0  0  0  0  0999 V2000
   -4.9544   13.8681   -1.2655 C   0  0  0  0  0  0  0  0  0  0  0  0
   -3.4768   14.5687    0.5347 C   0  0  0  0  0  0  0  0  0  0  0  0
   -3.6692   14.2464   -0.7480 C   0  0  0  0  0  0  0  0  0  0  0  0
   -5.9801   13.8472   -0.4068 C   0  0  0  0  0  0  0  0  0  0  0  0
   -5.8386   14.1949    1.0331 C   0  0  0  0  0  0  0  0  0  0  0  0
   -2.4534   15.0144   -2.8477 C   0  0  0  0  0  0  0  0  0  0  0  0
   -1.2984   13.7598   -1.5348 C   0  0  0  0  0  0  0  0  0  0  0  0
   -1.0916   14.2866   -2.9772 C   0  0  0  0  0  0  0  0  0  0  0  0
    0.1015   15.2242   -3.1305 C   0  0  0  0  0  0  0  0  0  0  0  0
   -1.0851   13.1842   -4.0362 C   0  0  0  0  0  0  0  0  0  0  0  0
   -4.5423   14.5433    1.4092 N   0  0  0  0  0  0  0  0  0  0  0  0
   -2.6528   14.2609   -1.6286 N   0  0  0  0  0  0  0  0  0  0  0  0
   -7.2491   13.5019   -0.7891 N   0  0  0  0  0  0  0  0  0  0  0  0
   -6.7887   14.1724    1.8108 O   0  0  0  0  0  0  0  0  0  0  0  0
   -5.0729   13.6121   -2.3127 H   0  0  0  0  0  0  0  0  0  0  0  0
   -2.5224   14.8576    0.9568 H   0  0  0  0  0  0  0  0  0  0  0  0
   -2.4140   16.0905   -2.6528 H   0  0  0  0  0  0  0  0  0  0  0  0
   -3.2057   14.7889   -3.6081 H   0  0  0  0  0  0  0  0  0  0  0  0
   -1.2613   12.6760   -1.3973 H   0  0  0  0  0  0  0  0  0  0  0  0
   -0.7359   14.2675   -0.7454 H   0  0  0  0  0  0  0  0  0  0  0  0
    1.0202   14.6451   -3.2156 H   0  0  0  0  0  0  0  0  0  0  0  0
    0.1733   15.8786   -2.2626 H   0  0  0  0  0  0  0  0  0  0  0  0
   -0.0178   15.8343   -4.0259 H   0  0  0  0  0  0  0  0  0  0  0  0
   -0.1033   12.7167   -4.0744 H   0  0  0  0  0  0  0  0  0  0  0  0
   -1.3174   13.6090   -5.0107 H   0  0  0  0  0  0  0  0  0  0  0  0
   -1.8308   12.4305   -3.7877 H   0  0  0  0  0  0  0  0  0  0  0  0
   -4.3738   14.7919    2.3796 H   0  0  0  0  0  0  0  0  0  0  0  0
   -7.4061   13.2593   -1.7404 H   0  0  0  0  0  0  0  0  0  0  0  0
   -7.9669   13.5063   -0.1017 H   0  0  0  0  0  0  0  0  0  0  0  0
  1  3  1  0  0  0  0
  1  4  2  0  0  0  0
  2  3  2  0  0  0  0
  2 11  1  0  0  0  0
  3 12  1  0  0  0  0
  4  5  1  0  0  0  0
  4 13  1  0  0  0  0
  5 11  1  0  0  0  0
  5 14  2  0  0  0  0
  6  8  1  0  0  0  0
  6 12  1  0  0  0  0
  7  8  1  0  0  0  0
  7 12  1  0  0  0  0
  8  9  1  0  0  0  0
  8 10  1  0  0  0  0
  1 15  1  0  0  0  0
  2 16  1  0  0  0  0
  6 17  1  0  0  0  0
  6 18  1  0  0  0  0
  7 19  1  0  0  0  0
  7 20  1  0  0  0  0
  9 21  1  0  0  0  0
  9 22  1  0  0  0  0
  9 23  1  0  0  0  0
 10 24  1  0  0  0  0
 10 25  1  0  0  0  0
 10 26  1  0  0  0  0
 11 27  1  0  0  0  0
 13 28  1  0  0  0  0
 13 29  1  0  0  0  0
M  END
> <HYBRID receptor title>
5S18(A) > WOY(A-201)

> <HYBRID receptor filename>
experiments/data/docking/5s18.oedu

> <HYBRID Chemgauss4 score>
-6.647892

> <HYBRID receptor title>
5S18(A) > WOY(A-201)

> <HYBRID receptor filename>
experiments/data/docking/5s18.oedu

> <Dock Type>
Hybrid

$$$$
MOL0113
  -OEChem-07032415493D

 20 20  0     0  0  0  0  0  0999 V2000
   -1.5657   14.8386   -1.0002 C   0  0  0  0  0  0  0  0  0  0  0  0
   -3.4409   14.6760    0.4877 C   0  0  0  0  0  0  0  0  0  0  0  0
   -2.9935   14.7394   -0.7739 C   0  0  0  0  0  0  0  0  0  0  0  0
   -0.6751   14.8690    0.0062 C   0  0  0  0  0  0  0  0  0  0  0  0
   -1.1975   14.7969    1.4166 C   0  0  0  0  0  0  0  0  0  0  0  0
   -3.8914   14.7133   -1.9696 C   0  0  0  0  0  0  0  0  0  0  0  0
   -5.3449   14.6083   -1.5898 C   0  0  0  0  0  0  0  0  0  0  0  0
   -2.5734   14.7037    1.5480 N   0  0  0  0  0  0  0  0  0  0  0  0
    0.6771   14.9609   -0.1395 N   0  0  0  0  0  0  0  0  0  0  0  0
   -0.4320   14.8204    2.3787 O   0  0  0  0  0  0  0  0  0  0  0  0
   -3.5684   13.6656   -2.7693 F   0  0  0  0  0  0  0  0  0  0  0  0
   -3.7095   15.8356   -2.7105 F   0  0  0  0  0  0  0  0  0  0  0  0
   -5.7063   15.6649   -0.8290 F   0  0  0  0  0  0  0  0  0  0  0  0
   -5.5934   13.4882   -0.8789 F   0  0  0  0  0  0  0  0  0  0  0  0
   -6.1437   14.5968   -2.6784 F   0  0  0  0  0  0  0  0  0  0  0  0
   -1.2251   14.8891   -2.0309 H   0  0  0  0  0  0  0  0  0  0  0  0
   -4.4908   14.6008    0.7424 H   0  0  0  0  0  0  0  0  0  0  0  0
   -2.9620   14.6530    2.4852 H   0  0  0  0  0  0  0  0  0  0  0  0
    1.0569   15.0109   -1.0602 H   0  0  0  0  0  0  0  0  0  0  0  0
    1.2467   14.9757    0.6786 H   0  0  0  0  0  0  0  0  0  0  0  0
  1  3  1  0  0  0  0
  1  4  2  0  0  0  0
  2  3  2  0  0  0  0
  2  8  1  0  0  0  0
  3  6  1  0  0  0  0
  4  5  1  0  0  0  0
  4  9  1  0  0  0  0
  5  8  1  0  0  0  0
  5 10  2  0  0  0  0
  6  7  1  0  0  0  0
  6 11  1  0  0  0  0
  6 12  1  0  0  0  0
  7 13  1  0  0  0  0
  7 14  1  0  0  0  0
  7 15  1  0  0  0  0
  1 16  1  0  0  0  0
  2 17  1  0  0  0  0
  8 18  1  0  0  0  0
  9 19  1  0  0  0  0
  9 20  1  0  0  0  0
M  END
> <HYBRID receptor title>
5S18(A) > WOY(A-201)

> <HYBRID receptor filename>
experiments/data/docking/5s18.oedu

> <HYBRID Chemgauss4 score>
-6.644323

> <HYBRID receptor title>
5S18(A) > WOY(A-201)

> <HYBRID receptor filename>
experiments/data/docking/5s18.oedu

> <Dock Type>
Hybrid

$$$$
MOL0411
  -OEChem-07032415493D

 26 26  0     0  0  0  0  0  0999 V2000
   -3.1173   14.7362   -1.1987 C   0  0  0  0  0  0  0  0  0  0  0  0
   -4.6299   15.0293    0.6468 C   0  0  0  0  0  0  0  0  0  0  0  0
   -4.4622   14.8954   -0.6773 C   0  0  0  0  0  0  0  0  0  0  0  0
   -2.0565   14.7227   -0.3796 C   0  0  0  0  0  0  0  0  0  0  0  0
   -2.2435   14.8720    1.0936 C   0  0  0  0  0  0  0  0  0  0  0  0
    0.2388   12.7192   -4.0009 C   0  0  0  0  0  0  0  0  0  0  0  0
   -0.9232   12.6331   -3.0264 C   0  0  0  0  0  0  0  0  0  0  0  0
   -5.5934   14.9003   -1.6557 C   0  0  0  0  0  0  0  0  0  0  0  0
   -3.5589   15.0181    1.5057 N   0  0  0  0  0  0  0  0  0  0  0  0
   -0.4620   12.8992   -1.6499 N   0  0  0  0  0  0  0  0  0  0  0  0
   -1.2877   14.8627    1.8646 O   0  0  0  0  0  0  0  0  0  0  0  0
   -0.4027   15.4034   -2.2507 O   0  0  0  0  0  0  0  0  0  0  0  0
    0.4981   14.6399   -0.0349 O   0  0  0  0  0  0  0  0  0  0  0  0
   -5.1429   14.7479   -2.9188 F   0  0  0  0  0  0  0  0  0  0  0  0
   -6.4617   13.8983   -1.4045 F   0  0  0  0  0  0  0  0  0  0  0  0
   -6.2783   16.0621   -1.5997 F   0  0  0  0  0  0  0  0  0  0  0  0
   -0.5042   14.5297   -1.0881 S   0  0  0  0  0  0  0  0  0  0  0  0
   -3.0039   14.6289   -2.2737 H   0  0  0  0  0  0  0  0  0  0  0  0
   -5.6004   15.1518    1.1119 H   0  0  0  0  0  0  0  0  0  0  0  0
    1.0092   11.9889   -3.7340 H   0  0  0  0  0  0  0  0  0  0  0  0
    0.6976   13.7136   -3.9856 H   0  0  0  0  0  0  0  0  0  0  0  0
   -0.0867   12.5075   -5.0251 H   0  0  0  0  0  0  0  0  0  0  0  0
   -1.6891   13.3662   -3.2997 H   0  0  0  0  0  0  0  0  0  0  0  0
   -1.3778   11.6384   -3.0767 H   0  0  0  0  0  0  0  0  0  0  0  0
   -3.7407   15.1229    2.4994 H   0  0  0  0  0  0  0  0  0  0  0  0
    0.3611   12.3443   -1.3803 H   0  0  0  0  0  0  0  0  0  0  0  0
  1  3  1  0  0  0  0
  1  4  2  0  0  0  0
  2  3  2  0  0  0  0
  2  9  1  0  0  0  0
  3  8  1  0  0  0  0
  4  5  1  0  0  0  0
  4 17  1  0  0  0  0
  5  9  1  0  0  0  0
  5 11  2  0  0  0  0
  6  7  1  0  0  0  0
  7 10  1  0  0  0  0
  8 14  1  0  0  0  0
  8 15  1  0  0  0  0
  8 16  1  0  0  0  0
 10 17  1  0  0  0  0
 12 17  2  0  0  0  0
 13 17  2  0  0  0  0
  1 18  1  0  0  0  0
  2 19  1  0  0  0  0
  6 20  1  0  0  0  0
  6 21  1  0  0  0  0
  6 22  1  0  0  0  0
  7 23  1  0  0  0  0
  7 24  1  0  0  0  0
  9 25  1  0  0  0  0
 10 26  1  0  0  0  0
M  END
> <HYBRID receptor title>
5S18(A) > WOY(A-201)

> <HYBRID receptor filename>
experiments/data/docking/5s18.oedu

> <HYBRID Chemgauss4 score>
-6.643518

> <HYBRID receptor title>
5S18(A) > WOY(A-201)

> <HYBRID receptor filename>
experiments/data/docking/5s18.oedu

> <Dock Type>
Hybrid

$$$$
MOL0325
  -OEChem-07032415493D

 27 27  0     0  0  0  0  0  0999 V2000
   -2.2451   14.7434   -0.8193 C   0  0  0  0  0  0  0  0  0  0  0  0
   -4.0070   15.2367    0.7328 C   0  0  0  0  0  0  0  0  0  0  0  0
   -3.6190   15.1123   -0.5438 C   0  0  0  0  0  0  0  0  0  0  0  0
   -1.3472   14.5212    0.1561 C   0  0  0  0  0  0  0  0  0  0  0  0
   -1.8023   14.6661    1.5841 C   0  0  0  0  0  0  0  0  0  0  0  0
   -8.5282   14.3634   -1.8619 C   0  0  0  0  0  0  0  0  0  0  0  0
   -4.5309   15.3347   -1.7081 C   0  0  0  0  0  0  0  0  0  0  0  0
   -5.2287   14.0389   -2.1096 C   0  0  0  0  0  0  0  0  0  0  0  0
   -6.0894   13.4735   -0.9810 C   0  0  0  0  0  0  0  0  0  0  0  0
   -3.1294   15.0212    1.7629 N   0  0  0  0  0  0  0  0  0  0  0  0
   -0.0437   14.1722   -0.0363 N   0  0  0  0  0  0  0  0  0  0  0  0
   -1.0271   14.4759    2.5194 O   0  0  0  0  0  0  0  0  0  0  0  0
   -7.3772   14.6606   -0.5007 S   0  0  0  0  0  0  0  0  0  0  0  0
   -1.9522   14.6485   -1.8615 H   0  0  0  0  0  0  0  0  0  0  0  0
   -5.0141   15.5087    1.0237 H   0  0  0  0  0  0  0  0  0  0  0  0
   -9.4056   15.0061   -1.7536 H   0  0  0  0  0  0  0  0  0  0  0  0
   -8.0403   14.5820   -2.8147 H   0  0  0  0  0  0  0  0  0  0  0  0
   -8.8488   13.3185   -1.8557 H   0  0  0  0  0  0  0  0  0  0  0  0
   -3.9491   15.7484   -2.5371 H   0  0  0  0  0  0  0  0  0  0  0  0
   -5.2763   16.0751   -1.4011 H   0  0  0  0  0  0  0  0  0  0  0  0
   -4.4563   13.3093   -2.3833 H   0  0  0  0  0  0  0  0  0  0  0  0
   -5.8444   14.2133   -3.0012 H   0  0  0  0  0  0  0  0  0  0  0  0
   -5.4829   13.2554   -0.0972 H   0  0  0  0  0  0  0  0  0  0  0  0
   -6.5768   12.5447   -1.2953 H   0  0  0  0  0  0  0  0  0  0  0  0
   -3.4720   15.1280    2.7132 H   0  0  0  0  0  0  0  0  0  0  0  0
    0.2912   14.0679   -0.9699 H   0  0  0  0  0  0  0  0  0  0  0  0
    0.5368   14.0314    0.7619 H   0  0  0  0  0  0  0  0  0  0  0  0
  1  3  1  0  0  0  0
  1  4  2  0  0  0  0
  2  3  2  0  0  0  0
  2 10  1  0  0  0  0
  3  7  1  0  0  0  0
  4  5  1  0  0  0  0
  4 11  1  0  0  0  0
  5 10  1  0  0  0  0
  5 12  2  0  0  0  0
  6 13  1  0  0  0  0
  7  8  1  0  0  0  0
  8  9  1  0  0  0  0
  9 13  1  0  0  0  0
  1 14  1  0  0  0  0
  2 15  1  0  0  0  0
  6 16  1  0  0  0  0
  6 17  1  0  0  0  0
  6 18  1  0  0  0  0
  7 19  1  0  0  0  0
  7 20  1  0  0  0  0
  8 21  1  0  0  0  0
  8 22  1  0  0  0  0
  9 23  1  0  0  0  0
  9 24  1  0  0  0  0
 10 25  1  0  0  0  0
 11 26  1  0  0  0  0
 11 27  1  0  0  0  0
M  END
> <HYBRID receptor title>
5S18(A) > WOY(A-201)

> <HYBRID receptor filename>
experiments/data/docking/5s18.oedu

> <HYBRID Chemgauss4 score>
-6.641060

> <HYBRID receptor title>
5S18(A) > WOY(A-201)

> <HYBRID receptor filename>
experiments/data/docking/5s18.oedu

> <Dock Type>
Hybrid

$$$$
MOL0141
  -OEChem-07032415493D

 29 29  0     0  0  0  0  0  0999 V2000
   -1.4141   14.7240   -0.9102 C   0  0  0  0  0  0  0  0  0  0  0  0
   -3.3249   14.9169    0.5279 C   0  0  0  0  0  0  0  0  0  0  0  0
   -2.8476   14.8176   -0.7203 C   0  0  0  0  0  0  0  0  0  0  0  0
   -0.5471   14.7326    0.1171 C   0  0  0  0  0  0  0  0  0  0  0  0
   -1.1030   14.8450    1.5120 C   0  0  0  0  0  0  0  0  0  0  0  0
   -5.3563   13.1557   -3.8667 C   0  0  0  0  0  0  0  0  0  0  0  0
   -7.3711   13.4707   -2.4162 C   0  0  0  0  0  0  0  0  0  0  0  0
   -3.7157   14.7981   -1.9343 C   0  0  0  0  0  0  0  0  0  0  0  0
   -5.0653   14.1746   -1.5885 C   0  0  0  0  0  0  0  0  0  0  0  0
   -6.0052   14.0410   -2.7996 C   0  0  0  0  0  0  0  0  0  0  0  0
   -2.4823   14.9303    1.6085 N   0  0  0  0  0  0  0  0  0  0  0  0
    0.8088   14.6478    0.0058 N   0  0  0  0  0  0  0  0  0  0  0  0
   -0.3601   14.8581    2.4918 O   0  0  0  0  0  0  0  0  0  0  0  0
   -1.0490   14.6446   -1.9306 H   0  0  0  0  0  0  0  0  0  0  0  0
   -4.3811   14.9910    0.7557 H   0  0  0  0  0  0  0  0  0  0  0  0
   -5.1803   12.1463   -3.4802 H   0  0  0  0  0  0  0  0  0  0  0  0
   -4.3891   13.5652   -4.1780 H   0  0  0  0  0  0  0  0  0  0  0  0
   -5.9913   13.0736   -4.7557 H   0  0  0  0  0  0  0  0  0  0  0  0
   -7.2755   12.4741   -1.9727 H   0  0  0  0  0  0  0  0  0  0  0  0
   -8.0176   13.3877   -3.2962 H   0  0  0  0  0  0  0  0  0  0  0  0
   -7.8857   14.1165   -1.6982 H   0  0  0  0  0  0  0  0  0  0  0  0
   -3.2060   14.2165   -2.7082 H   0  0  0  0  0  0  0  0  0  0  0  0
   -3.8323   15.8291   -2.2796 H   0  0  0  0  0  0  0  0  0  0  0  0
   -5.5497   14.7677   -0.8021 H   0  0  0  0  0  0  0  0  0  0  0  0
   -4.8965   13.1793   -1.1557 H   0  0  0  0  0  0  0  0  0  0  0  0
   -6.1588   15.0360   -3.2371 H   0  0  0  0  0  0  0  0  0  0  0  0
   -2.8931   15.0072    2.5343 H   0  0  0  0  0  0  0  0  0  0  0  0
    1.2105   14.5726   -0.9039 H   0  0  0  0  0  0  0  0  0  0  0  0
    1.3591   14.6636    0.8369 H   0  0  0  0  0  0  0  0  0  0  0  0
  1  3  1  0  0  0  0
  1  4  2  0  0  0  0
  2  3  2  0  0  0  0
  2 11  1  0  0  0  0
  3  8  1  0  0  0  0
  4  5  1  0  0  0  0
  4 12  1  0  0  0  0
  5 11  1  0  0  0  0
  5 13  2  0  0  0  0
  6 10  1  0  0  0  0
  7 10  1  0  0  0  0
  8  9  1  0  0  0  0
  9 10  1  0  0  0  0
  1 14  1  0  0  0  0
  2 15  1  0  0  0  0
  6 16  1  0  0  0  0
  6 17  1  0  0  0  0
  6 18  1  0  0  0  0
  7 19  1  0  0  0  0
  7 20  1  0  0  0  0
  7 21  1  0  0  0  0
  8 22  1  0  0  0  0
  8 23  1  0  0  0  0
  9 24  1  0  0  0  0
  9 25  1  0  0  0  0
 10 26  1  0  0  0  0
 11 27  1  0  0  0  0
 12 28  1  0  0  0  0
 12 29  1  0  0  0  0
M  END
> <HYBRID receptor title>
5S18(A) > WOY(A-201)

> <HYBRID receptor filename>
experiments/data/docking/5s18.oedu

> <HYBRID Chemgauss4 score>
-6.630649

> <HYBRID receptor title>
5S18(A) > WOY(A-201)

> <HYBRID receptor filename>
experiments/data/docking/5s18.oedu

> <Dock Type>
Hybrid

$$$$
MOL0098
  -OEChem-07032415493D

 22 23  0     0  0  0  0  0  0999 V2000
   -2.8156   14.6369   -1.0864 C   0  0  0  0  0  0  0  0  0  0  0  0
   -4.4660   14.7958    0.6478 C   0  0  0  0  0  0  0  0  0  0  0  0
   -4.1982   14.7330   -0.6637 C   0  0  0  0  0  0  0  0  0  0  0  0
   -1.7936   14.6080   -0.2136 C   0  0  0  0  0  0  0  0  0  0  0  0
   -2.1149   14.6798    1.2557 C   0  0  0  0  0  0  0  0  0  0  0  0
   -6.2315   13.6522   -1.7111 C   0  0  0  0  0  0  0  0  0  0  0  0
   -6.6243   15.0427   -1.3042 C   0  0  0  0  0  0  0  0  0  0  0  0
   -5.2203   14.7546   -1.7325 C   0  0  0  0  0  0  0  0  0  0  0  0
   -3.4594   14.7702    1.5772 N   0  0  0  0  0  0  0  0  0  0  0  0
   -0.4746   14.5186   -0.5458 N   0  0  0  0  0  0  0  0  0  0  0  0
   -1.2229   14.6581    2.1020 O   0  0  0  0  0  0  0  0  0  0  0  0
   -4.8463   15.2412   -3.0344 O   0  0  0  0  0  0  0  0  0  0  0  0
   -2.6177   14.5870   -2.1540 H   0  0  0  0  0  0  0  0  0  0  0  0
   -5.4708   14.8693    1.0454 H   0  0  0  0  0  0  0  0  0  0  0  0
   -6.1879   12.8960   -0.9355 H   0  0  0  0  0  0  0  0  0  0  0  0
   -6.6012   13.2822   -2.6604 H   0  0  0  0  0  0  0  0  0  0  0  0
   -7.2587   15.6041   -1.9804 H   0  0  0  0  0  0  0  0  0  0  0  0
   -6.8426   15.2153   -0.2565 H   0  0  0  0  0  0  0  0  0  0  0  0
   -3.7245   14.8211    2.5565 H   0  0  0  0  0  0  0  0  0  0  0  0
   -0.2263   14.4695   -1.5104 H   0  0  0  0  0  0  0  0  0  0  0  0
    0.2031   14.5050    0.1852 H   0  0  0  0  0  0  0  0  0  0  0  0
   -5.6418   15.1737   -3.5777 H   0  0  0  0  0  0  0  0  0  0  0  0
  1  3  1  0  0  0  0
  1  4  2  0  0  0  0
  2  3  2  0  0  0  0
  2  9  1  0  0  0  0
  3  8  1  0  0  0  0
  4  5  1  0  0  0  0
  4 10  1  0  0  0  0
  5  9  1  0  0  0  0
  5 11  2  0  0  0  0
  6  7  1  0  0  0  0
  6  8  1  0  0  0  0
  7  8  1  0  0  0  0
  8 12  1  0  0  0  0
  1 13  1  0  0  0  0
  2 14  1  0  0  0  0
  6 15  1  0  0  0  0
  6 16  1  0  0  0  0
  7 17  1  0  0  0  0
  7 18  1  0  0  0  0
  9 19  1  0  0  0  0
 10 20  1  0  0  0  0
 10 21  1  0  0  0  0
 12 22  1  0  0  0  0
M  END
> <HYBRID receptor title>
5S18(A) > WOY(A-201)

> <HYBRID receptor filename>
experiments/data/docking/5s18.oedu

> <HYBRID Chemgauss4 score>
-6.613483

> <HYBRID receptor title>
5S18(A) > WOY(A-201)

> <HYBRID receptor filename>
experiments/data/docking/5s18.oedu

> <Dock Type>
Hybrid

$$$$
MOL0313
  -OEChem-07032415493D

 24 24  0     0  0  0  0  0  0999 V2000
   -3.1026   14.6684   -0.9625 C   0  0  0  0  0  0  0  0  0  0  0  0
   -4.5532   15.0136    0.9262 C   0  0  0  0  0  0  0  0  0  0  0  0
   -1.9915   14.7049   -0.2053 C   0  0  0  0  0  0  0  0  0  0  0  0
   -4.4191   14.8260   -0.3901 C   0  0  0  0  0  0  0  0  0  0  0  0
   -2.1495   14.9175    1.2796 C   0  0  0  0  0  0  0  0  0  0  0  0
   -7.7112   15.3257   -0.7032 C   0  0  0  0  0  0  0  0  0  0  0  0
   -7.0674   12.9864   -1.3652 C   0  0  0  0  0  0  0  0  0  0  0  0
   -6.6318   14.2564   -0.6508 C   0  0  0  0  0  0  0  0  0  0  0  0
   -3.4502   15.0585    1.7384 N   0  0  0  0  0  0  0  0  0  0  0  0
   -0.7175   14.5646   -0.6695 N   0  0  0  0  0  0  0  0  0  0  0  0
   -1.1689   14.9598    2.0207 O   0  0  0  0  0  0  0  0  0  0  0  0
   -5.4675   14.7697   -1.2743 O   0  0  0  0  0  0  0  0  0  0  0  0
   -3.0337   14.5170   -2.0360 H   0  0  0  0  0  0  0  0  0  0  0  0
   -5.5103   15.1386    1.4167 H   0  0  0  0  0  0  0  0  0  0  0  0
   -7.9793   15.5713   -1.7354 H   0  0  0  0  0  0  0  0  0  0  0  0
   -7.3827   16.2411   -0.1989 H   0  0  0  0  0  0  0  0  0  0  0  0
   -8.6118   14.9849   -0.1801 H   0  0  0  0  0  0  0  0  0  0  0  0
   -7.3141   13.2003   -2.4108 H   0  0  0  0  0  0  0  0  0  0  0  0
   -7.9721   12.5695   -0.9087 H   0  0  0  0  0  0  0  0  0  0  0  0
   -6.2798   12.2273   -1.3428 H   0  0  0  0  0  0  0  0  0  0  0  0
   -6.3871   14.0343    0.3936 H   0  0  0  0  0  0  0  0  0  0  0  0
   -3.5939   15.2033    2.7335 H   0  0  0  0  0  0  0  0  0  0  0  0
   -0.5771   14.4226   -1.6466 H   0  0  0  0  0  0  0  0  0  0  0  0
    0.0364   14.6081   -0.0187 H   0  0  0  0  0  0  0  0  0  0  0  0
  1  3  2  0  0  0  0
  1  4  1  0  0  0  0
  2  4  2  0  0  0  0
  2  9  1  0  0  0  0
  3  5  1  0  0  0  0
  3 10  1  0  0  0  0
  4 12  1  0  0  0  0
  5  9  1  0  0  0  0
  5 11  2  0  0  0  0
  6  8  1  0  0  0  0
  7  8  1  0  0  0  0
  8 12  1  0  0  0  0
  1 13  1  0  0  0  0
  2 14  1  0  0  0  0
  6 15  1  0  0  0  0
  6 16  1  0  0  0  0
  6 17  1  0  0  0  0
  7 18  1  0  0  0  0
  7 19  1  0  0  0  0
  7 20  1  0  0  0  0
  8 21  1  0  0  0  0
  9 22  1  0  0  0  0
 10 23  1  0  0  0  0
 10 24  1  0  0  0  0
M  END
> <HYBRID receptor title>
5S18(A) > WOY(A-201)

> <HYBRID receptor filename>
experiments/data/docking/5s18.oedu

> <HYBRID Chemgauss4 score>
-6.612639

> <HYBRID receptor title>
5S18(A) > WOY(A-201)

> <HYBRID receptor filename>
experiments/data/docking/5s18.oedu

> <Dock Type>
Hybrid

$$$$
MOL0179
  -OEChem-07032415493D

 22 22  0     0  0  0  0  0  0999 V2000
   -3.0244   14.3749   -1.1634 C   0  0  0  0  0  0  0  0  0  0  0  0
   -4.4703   14.8606    0.6944 C   0  0  0  0  0  0  0  0  0  0  0  0
   -1.9231   14.5214   -0.4093 C   0  0  0  0  0  0  0  0  0  0  0  0
   -4.3519   14.5476   -0.6042 C   0  0  0  0  0  0  0  0  0  0  0  0
   -2.0623   14.8708    1.0391 C   0  0  0  0  0  0  0  0  0  0  0  0
   -0.6237   14.3269   -1.0582 C   0  0  0  0  0  0  0  0  0  0  0  0
    0.8011   15.2100   -2.9004 C   0  0  0  0  0  0  0  0  0  0  0  0
   -5.5226   14.3641   -1.5170 C   0  0  0  0  0  0  0  0  0  0  0  0
   -3.3639   15.0173    1.4907 N   0  0  0  0  0  0  0  0  0  0  0  0
   -0.4061   15.2054   -2.1053 N   0  0  0  0  0  0  0  0  0  0  0  0
   -1.0740   15.0113    1.7552 O   0  0  0  0  0  0  0  0  0  0  0  0
    0.1535   13.4558   -0.6700 O   0  0  0  0  0  0  0  0  0  0  0  0
   -5.1188   14.0536   -2.7668 F   0  0  0  0  0  0  0  0  0  0  0  0
   -6.3279   13.3709   -1.0858 F   0  0  0  0  0  0  0  0  0  0  0  0
   -6.2618   15.4909   -1.5904 F   0  0  0  0  0  0  0  0  0  0  0  0
   -2.9582   14.1215   -2.2178 H   0  0  0  0  0  0  0  0  0  0  0  0
   -5.4249   15.0063    1.1849 H   0  0  0  0  0  0  0  0  0  0  0  0
    1.5426   15.8890   -2.4697 H   0  0  0  0  0  0  0  0  0  0  0  0
    1.2291   14.2045   -2.9433 H   0  0  0  0  0  0  0  0  0  0  0  0
    0.5797   15.5337   -3.9212 H   0  0  0  0  0  0  0  0  0  0  0  0
   -3.5073   15.2546    2.4679 H   0  0  0  0  0  0  0  0  0  0  0  0
   -1.1247   15.8812   -2.3483 H   0  0  0  0  0  0  0  0  0  0  0  0
  1  3  2  0  0  0  0
  1  4  1  0  0  0  0
  2  4  2  0  0  0  0
  2  9  1  0  0  0  0
  3  5  1  0  0  0  0
  3  6  1  0  0  0  0
  4  8  1  0  0  0  0
  5  9  1  0  0  0  0
  5 11  2  0  0  0  0
  6 10  1  0  0  0  0
  6 12  2  0  0  0  0
  7 10  1  0  0  0  0
  8 13  1  0  0  0  0
  8 14  1  0  0  0  0
  8 15  1  0  0  0  0
  1 16  1  0  0  0  0
  2 17  1  0  0  0  0
  7 18  1  0  0  0  0
  7 19  1  0  0  0  0
  7 20  1  0  0  0  0
  9 21  1  0  0  0  0
 10 22  1  0  0  0  0
M  END
> <HYBRID receptor title>
5S18(A) > WOY(A-201)

> <HYBRID receptor filename>
experiments/data/docking/5s18.oedu

> <HYBRID Chemgauss4 score>
-6.612578

> <HYBRID receptor title>
5S18(A) > WOY(A-201)

> <HYBRID receptor filename>
experiments/data/docking/5s18.oedu

> <Dock Type>
Hybrid

$$$$
MOL0187
  -OEChem-07032415493D

 24 24  0     0  0  0  0  0  0999 V2000
   -1.7570   14.6618   -1.0815 C   0  0  0  0  0  0  0  0  0  0  0  0
   -3.2040   14.8066   -1.1467 C   0  0  0  0  0  0  0  0  0  0  0  0
   -1.0619   14.7321    0.0655 C   0  0  0  0  0  0  0  0  0  0  0  0
   -3.8758   15.0208    0.0008 C   0  0  0  0  0  0  0  0  0  0  0  0
   -1.8271   14.9720    1.3334 C   0  0  0  0  0  0  0  0  0  0  0  0
   -5.9854   13.8324    1.2044 C   0  0  0  0  0  0  0  0  0  0  0  0
   -3.7847   14.6948   -2.5294 C   0  0  0  0  0  0  0  0  0  0  0  0
   -7.2017   14.1322    2.0489 C   0  0  0  0  0  0  0  0  0  0  0  0
   -3.1974   15.0989    1.1956 N   0  0  0  0  0  0  0  0  0  0  0  0
    0.2902   14.6033    0.1801 N   0  0  0  0  0  0  0  0  0  0  0  0
   -1.2522   15.0479    2.4178 O   0  0  0  0  0  0  0  0  0  0  0  0
   -2.8144   14.4784   -3.4379 F   0  0  0  0  0  0  0  0  0  0  0  0
   -4.6610   13.6749   -2.6019 F   0  0  0  0  0  0  0  0  0  0  0  0
   -4.4312   15.8267   -2.8682 F   0  0  0  0  0  0  0  0  0  0  0  0
   -7.0125   15.2133    2.8347 F   0  0  0  0  0  0  0  0  0  0  0  0
   -8.2669   14.3911    1.2552 F   0  0  0  0  0  0  0  0  0  0  0  0
   -7.5330   13.0894    2.8394 F   0  0  0  0  0  0  0  0  0  0  0  0
   -5.5915   15.2159    0.1136 S   0  0  0  0  0  0  0  0  0  0  0  0
   -1.2317   14.4889   -2.0176 H   0  0  0  0  0  0  0  0  0  0  0  0
   -5.1203   13.6357    1.8451 H   0  0  0  0  0  0  0  0  0  0  0  0
   -6.1618   12.9437    0.5916 H   0  0  0  0  0  0  0  0  0  0  0  0
   -3.7480   15.2622    2.0329 H   0  0  0  0  0  0  0  0  0  0  0  0
    0.8274   14.4432   -0.6447 H   0  0  0  0  0  0  0  0  0  0  0  0
    0.7027   14.6732    1.0851 H   0  0  0  0  0  0  0  0  0  0  0  0
  1  2  1  0  0  0  0
  1  3  2  0  0  0  0
  2  4  2  0  0  0  0
  2  7  1  0  0  0  0
  3  5  1  0  0  0  0
  3 10  1  0  0  0  0
  4  9  1  0  0  0  0
  4 18  1  0  0  0  0
  5  9  1  0  0  0  0
  5 11  2  0  0  0  0
  6  8  1  0  0  0  0
  6 18  1  0  0  0  0
  7 12  1  0  0  0  0
  7 13  1  0  0  0  0
  7 14  1  0  0  0  0
  8 15  1  0  0  0  0
  8 16  1  0  0  0  0
  8 17  1  0  0  0  0
  1 19  1  0  0  0  0
  6 20  1  0  0  0  0
  6 21  1  0  0  0  0
  9 22  1  0  0  0  0
 10 23  1  0  0  0  0
 10 24  1  0  0  0  0
M  END
> <HYBRID receptor title>
5S18(A) > WOY(A-201)

> <HYBRID receptor filename>
experiments/data/docking/5s18.oedu

> <HYBRID Chemgauss4 score>
-6.612119

> <HYBRID receptor title>
5S18(A) > WOY(A-201)

> <HYBRID receptor filename>
experiments/data/docking/5s18.oedu

> <Dock Type>
Hybrid

$$$$
MOL0256
  -OEChem-07032415493D

 24 25  0     0  0  0  0  0  0999 V2000
   -6.5980   14.6287    1.2151 C   0  0  0  0  0  0  0  0  0  0  0  0
   -6.7060   15.2107   -0.0621 C   0  0  0  0  0  0  0  0  0  0  0  0
   -5.2514   14.4137    1.3809 C   0  0  0  0  0  0  0  0  0  0  0  0
   -1.2732   14.6147   -1.2391 C   0  0  0  0  0  0  0  0  0  0  0  0
   -2.7240   14.6662   -1.1623 C   0  0  0  0  0  0  0  0  0  0  0  0
   -0.4784   14.7010   -0.1599 C   0  0  0  0  0  0  0  0  0  0  0  0
   -3.2976   14.8044    0.0496 C   0  0  0  0  0  0  0  0  0  0  0  0
   -1.1317   14.8568    1.1825 C   0  0  0  0  0  0  0  0  0  0  0  0
   -3.4549   14.5550   -2.4693 C   0  0  0  0  0  0  0  0  0  0  0  0
   -5.5229   15.3564   -0.6644 N   0  0  0  0  0  0  0  0  0  0  0  0
   -4.6580   14.8627    0.2379 N   0  0  0  0  0  0  0  0  0  0  0  0
   -2.5146   14.8967    1.1814 N   0  0  0  0  0  0  0  0  0  0  0  0
    0.8839   14.6595   -0.1767 N   0  0  0  0  0  0  0  0  0  0  0  0
   -0.4601   14.9419    2.2092 O   0  0  0  0  0  0  0  0  0  0  0  0
   -2.5884   14.4247   -3.4931 F   0  0  0  0  0  0  0  0  0  0  0  0
   -4.2722   13.4839   -2.4763 F   0  0  0  0  0  0  0  0  0  0  0  0
   -4.2043   15.6522   -2.6942 F   0  0  0  0  0  0  0  0  0  0  0  0
   -7.3854   14.3969    1.9168 H   0  0  0  0  0  0  0  0  0  0  0  0
   -7.5980   15.5344   -0.5791 H   0  0  0  0  0  0  0  0  0  0  0  0
   -4.6893   13.9880    2.2020 H   0  0  0  0  0  0  0  0  0  0  0  0
   -0.8319   14.5010   -2.2262 H   0  0  0  0  0  0  0  0  0  0  0  0
   -2.9860   15.0011    2.0761 H   0  0  0  0  0  0  0  0  0  0  0  0
    1.3488   14.5572   -1.0531 H   0  0  0  0  0  0  0  0  0  0  0  0
    1.3757   14.7328    0.6873 H   0  0  0  0  0  0  0  0  0  0  0  0
  1  2  1  0  0  0  0
  1  3  2  0  0  0  0
  2 10  2  0  0  0  0
  3 11  1  0  0  0  0
  4  5  1  0  0  0  0
  4  6  2  0  0  0  0
  5  7  2  0  0  0  0
  5  9  1  0  0  0  0
  6  8  1  0  0  0  0
  6 13  1  0  0  0  0
  7 11  1  0  0  0  0
  7 12  1  0  0  0  0
  8 12  1  0  0  0  0
  8 14  2  0  0  0  0
  9 15  1  0  0  0  0
  9 16  1  0  0  0  0
  9 17  1  0  0  0  0
 10 11  1  0  0  0  0
  1 18  1  0  0  0  0
  2 19  1  0  0  0  0
  3 20  1  0  0  0  0
  4 21  1  0  0  0  0
 12 22  1  0  0  0  0
 13 23  1  0  0  0  0
 13 24  1  0  0  0  0
M  END
> <HYBRID receptor title>
5S18(A) > WOY(A-201)

> <HYBRID receptor filename>
experiments/data/docking/5s18.oedu

> <HYBRID Chemgauss4 score>
-6.610084

> <HYBRID receptor title>
5S18(A) > WOY(A-201)

> <HYBRID receptor filename>
experiments/data/docking/5s18.oedu

> <Dock Type>
Hybrid

$$$$
MOL0137
  -OEChem-07032415493D

 23 23  0     0  0  0  0  0  0999 V2000
   -3.0363   14.7833   -1.0402 C   0  0  0  0  0  0  0  0  0  0  0  0
   -4.4066   14.6703    0.9260 C   0  0  0  0  0  0  0  0  0  0  0  0
   -4.3361   14.6584   -0.4121 C   0  0  0  0  0  0  0  0  0  0  0  0
   -1.9008   14.9100   -0.3320 C   0  0  0  0  0  0  0  0  0  0  0  0
   -2.0009   14.9213    1.1705 C   0  0  0  0  0  0  0  0  0  0  0  0
   -6.3759   13.6707   -3.5419 C   0  0  0  0  0  0  0  0  0  0  0  0
   -5.1854   13.8293   -2.6083 C   0  0  0  0  0  0  0  0  0  0  0  0
   -5.5321   14.5226   -1.2997 C   0  0  0  0  0  0  0  0  0  0  0  0
   -3.2780   14.7974    1.6926 N   0  0  0  0  0  0  0  0  0  0  0  0
   -0.6504   15.0310   -0.8610 N   0  0  0  0  0  0  0  0  0  0  0  0
   -0.9975   15.0344    1.8722 O   0  0  0  0  0  0  0  0  0  0  0  0
   -6.5258   13.8425   -0.6730 F   0  0  0  0  0  0  0  0  0  0  0  0
   -6.0346   15.7527   -1.5871 F   0  0  0  0  0  0  0  0  0  0  0  0
   -3.0025   14.7716   -2.1263 H   0  0  0  0  0  0  0  0  0  0  0  0
   -5.3375   14.5824    1.4725 H   0  0  0  0  0  0  0  0  0  0  0  0
   -6.8426   14.6355   -3.7639 H   0  0  0  0  0  0  0  0  0  0  0  0
   -7.1344   13.0313   -3.0787 H   0  0  0  0  0  0  0  0  0  0  0  0
   -6.0761   13.2071   -4.4873 H   0  0  0  0  0  0  0  0  0  0  0  0
   -4.7432   12.8461   -2.4076 H   0  0  0  0  0  0  0  0  0  0  0  0
   -4.4162   14.4189   -3.1205 H   0  0  0  0  0  0  0  0  0  0  0  0
   -3.3841   14.8010    2.7029 H   0  0  0  0  0  0  0  0  0  0  0  0
   -0.5481   15.0276   -1.8530 H   0  0  0  0  0  0  0  0  0  0  0  0
    0.1251   15.1195   -0.2408 H   0  0  0  0  0  0  0  0  0  0  0  0
  1  3  1  0  0  0  0
  1  4  2  0  0  0  0
  2  3  2  0  0  0  0
  2  9  1  0  0  0  0
  3  8  1  0  0  0  0
  4  5  1  0  0  0  0
  4 10  1  0  0  0  0
  5  9  1  0  0  0  0
  5 11  2  0  0  0  0
  6  7  1  0  0  0  0
  7  8  1  0  0  0  0
  8 12  1  0  0  0  0
  8 13  1  0  0  0  0
  1 14  1  0  0  0  0
  2 15  1  0  0  0  0
  6 16  1  0  0  0  0
  6 17  1  0  0  0  0
  6 18  1  0  0  0  0
  7 19  1  0  0  0  0
  7 20  1  0  0  0  0
  9 21  1  0  0  0  0
 10 22  1  0  0  0  0
 10 23  1  0  0  0  0
M  END
> <HYBRID receptor title>
5S18(A) > WOY(A-201)

> <HYBRID receptor filename>
experiments/data/docking/5s18.oedu

> <HYBRID Chemgauss4 score>
-6.609790

> <HYBRID receptor title>
5S18(A) > WOY(A-201)

> <HYBRID receptor filename>
experiments/data/docking/5s18.oedu

> <Dock Type>
Hybrid

$$$$
MOL0023
  -OEChem-07032415493D

 24 25  0     0  0  0  0  0  0999 V2000
   -5.4545   14.0431   -4.0688 C   0  0  0  0  0  0  0  0  0  0  0  0
   -5.8689   14.7971   -2.9709 C   0  0  0  0  0  0  0  0  0  0  0  0
   -4.1941   13.4456   -4.0680 C   0  0  0  0  0  0  0  0  0  0  0  0
   -5.0234   14.9535   -1.8724 C   0  0  0  0  0  0  0  0  0  0  0  0
   -3.3486   13.6020   -2.9696 C   0  0  0  0  0  0  0  0  0  0  0  0
   -3.7630   14.3560   -1.8717 C   0  0  0  0  0  0  0  0  0  0  0  0
   -1.4291   14.5219   -0.8199 C   0  0  0  0  0  0  0  0  0  0  0  0
   -3.4330   14.6811    0.4870 C   0  0  0  0  0  0  0  0  0  0  0  0
   -2.8804   14.5199   -0.7269 C   0  0  0  0  0  0  0  0  0  0  0  0
   -0.6288   14.6748    0.2496 C   0  0  0  0  0  0  0  0  0  0  0  0
   -1.2746   14.8517    1.5965 C   0  0  0  0  0  0  0  0  0  0  0  0
   -2.6586   14.8400    1.6069 N   0  0  0  0  0  0  0  0  0  0  0  0
    0.7340   14.6857    0.2205 N   0  0  0  0  0  0  0  0  0  0  0  0
   -0.5969   14.9952    2.6125 O   0  0  0  0  0  0  0  0  0  0  0  0
   -6.1127   13.9218   -4.9241 H   0  0  0  0  0  0  0  0  0  0  0  0
   -6.8503   15.2624   -2.9704 H   0  0  0  0  0  0  0  0  0  0  0  0
   -3.8701   12.8589   -4.9226 H   0  0  0  0  0  0  0  0  0  0  0  0
   -5.3615   15.5432   -1.0237 H   0  0  0  0  0  0  0  0  0  0  0  0
   -2.3690   13.1300   -2.9842 H   0  0  0  0  0  0  0  0  0  0  0  0
   -0.9980   14.3929   -1.8096 H   0  0  0  0  0  0  0  0  0  0  0  0
   -4.5031   14.6958    0.6602 H   0  0  0  0  0  0  0  0  0  0  0  0
   -3.1393   14.9566    2.4941 H   0  0  0  0  0  0  0  0  0  0  0  0
    1.1949   14.5725   -0.6566 H   0  0  0  0  0  0  0  0  0  0  0  0
    1.2300   14.8066    1.0768 H   0  0  0  0  0  0  0  0  0  0  0  0
  1  2  1  0  0  0  0
  1  3  2  0  0  0  0
  2  4  2  0  0  0  0
  3  5  1  0  0  0  0
  4  6  1  0  0  0  0
  5  6  2  0  0  0  0
  6  9  1  0  0  0  0
  7  9  1  0  0  0  0
  7 10  2  0  0  0  0
  8  9  2  0  0  0  0
  8 12  1  0  0  0  0
 10 11  1  0  0  0  0
 10 13  1  0  0  0  0
 11 12  1  0  0  0  0
 11 14  2  0  0  0  0
  1 15  1  0  0  0  0
  2 16  1  0  0  0  0
  3 17  1  0  0  0  0
  4 18  1  0  0  0  0
  5 19  1  0  0  0  0
  7 20  1  0  0  0  0
  8 21  1  0  0  0  0
 12 22  1  0  0  0  0
 13 23  1  0  0  0  0
 13 24  1  0  0  0  0
M  END
> <HYBRID receptor title>
5S18(A) > WOY(A-201)

> <HYBRID receptor filename>
experiments/data/docking/5s18.oedu

> <HYBRID Chemgauss4 score>
-6.608237

> <HYBRID receptor title>
5S18(A) > WOY(A-201)

> <HYBRID receptor filename>
experiments/data/docking/5s18.oedu

> <Dock Type>
Hybrid

$$$$
MOL0097
  -OEChem-07032415493D

 27 27  0     0  0  0  0  0  0999 V2000
   -3.2312   14.6266   -1.1236 C   0  0  0  0  0  0  0  0  0  0  0  0
   -4.7936   14.8363    0.6851 C   0  0  0  0  0  0  0  0  0  0  0  0
   -4.5925   14.6631   -0.6283 C   0  0  0  0  0  0  0  0  0  0  0  0
   -2.1648   14.7593   -0.3160 C   0  0  0  0  0  0  0  0  0  0  0  0
   -2.4115   14.9531    1.1567 C   0  0  0  0  0  0  0  0  0  0  0  0
   -5.6358   15.6209   -2.6609 C   0  0  0  0  0  0  0  0  0  0  0  0
   -7.0522   14.5070   -0.9012 C   0  0  0  0  0  0  0  0  0  0  0  0
   -6.8795   12.9556   -3.5499 C   0  0  0  0  0  0  0  0  0  0  0  0
   -5.7019   14.5045   -1.6186 C   0  0  0  0  0  0  0  0  0  0  0  0
   -3.7397   14.9767    1.5496 N   0  0  0  0  0  0  0  0  0  0  0  0
   -0.8626   14.7339   -0.7183 N   0  0  0  0  0  0  0  0  0  0  0  0
   -1.4765   15.0804    1.9452 O   0  0  0  0  0  0  0  0  0  0  0  0
   -5.4523   12.8935   -2.4459 S   0  0  0  0  0  0  0  0  0  0  0  0
   -3.0914   14.4856   -2.1920 H   0  0  0  0  0  0  0  0  0  0  0  0
   -5.7779   14.8752    1.1352 H   0  0  0  0  0  0  0  0  0  0  0  0
   -6.4378   15.5337   -3.4042 H   0  0  0  0  0  0  0  0  0  0  0  0
   -4.6901   15.5762   -3.2131 H   0  0  0  0  0  0  0  0  0  0  0  0
   -5.7023   16.6144   -2.2024 H   0  0  0  0  0  0  0  0  0  0  0  0
   -7.8871   14.3923   -1.6005 H   0  0  0  0  0  0  0  0  0  0  0  0
   -7.1181   13.7067   -0.1538 H   0  0  0  0  0  0  0  0  0  0  0  0
   -7.2003   15.4511   -0.3636 H   0  0  0  0  0  0  0  0  0  0  0  0
   -6.9179   12.0489   -4.1590 H   0  0  0  0  0  0  0  0  0  0  0  0
   -7.7987   13.0320   -2.9642 H   0  0  0  0  0  0  0  0  0  0  0  0
   -6.8020   13.8245   -4.2086 H   0  0  0  0  0  0  0  0  0  0  0  0
   -3.9444   15.1056    2.5362 H   0  0  0  0  0  0  0  0  0  0  0  0
   -0.6634   14.6075   -1.6873 H   0  0  0  0  0  0  0  0  0  0  0  0
   -0.1476   14.8424   -0.0321 H   0  0  0  0  0  0  0  0  0  0  0  0
  1  3  1  0  0  0  0
  1  4  2  0  0  0  0
  2  3  2  0  0  0  0
  2 10  1  0  0  0  0
  3  9  1  0  0  0  0
  4  5  1  0  0  0  0
  4 11  1  0  0  0  0
  5 10  1  0  0  0  0
  5 12  2  0  0  0  0
  6  9  1  0  0  0  0
  7  9  1  0  0  0  0
  8 13  1  0  0  0  0
  9 13  1  0  0  0  0
  1 14  1  0  0  0  0
  2 15  1  0  0  0  0
  6 16  1  0  0  0  0
  6 17  1  0  0  0  0
  6 18  1  0  0  0  0
  7 19  1  0  0  0  0
  7 20  1  0  0  0  0
  7 21  1  0  0  0  0
  8 22  1  0  0  0  0
  8 23  1  0  0  0  0
  8 24  1  0  0  0  0
 10 25  1  0  0  0  0
 11 26  1  0  0  0  0
 11 27  1  0  0  0  0
M  END
> <HYBRID receptor title>
5S18(A) > WOY(A-201)

> <HYBRID receptor filename>
experiments/data/docking/5s18.oedu

> <HYBRID Chemgauss4 score>
-6.604339

> <HYBRID receptor title>
5S18(A) > WOY(A-201)

> <HYBRID receptor filename>
experiments/data/docking/5s18.oedu

> <Dock Type>
Hybrid

$$$$
MOL0291
  -OEChem-07032415493D

 26 26  0     0  0  0  0  0  0999 V2000
   -2.3094   14.4574   -1.0563 C   0  0  0  0  0  0  0  0  0  0  0  0
   -4.1842   14.7259    0.4269 C   0  0  0  0  0  0  0  0  0  0  0  0
   -3.7287   14.5388   -0.8160 C   0  0  0  0  0  0  0  0  0  0  0  0
   -1.4121   14.5649   -0.0603 C   0  0  0  0  0  0  0  0  0  0  0  0
   -1.9296   14.7765    1.3403 C   0  0  0  0  0  0  0  0  0  0  0  0
   -4.6978   14.4207   -1.9054 C   0  0  0  0  0  0  0  0  0  0  0  0
   -2.8164   13.6029   -4.8389 C   0  0  0  0  0  0  0  0  0  0  0  0
   -5.2941   14.0152   -4.9664 C   0  0  0  0  0  0  0  0  0  0  0  0
   -4.0237   14.2267   -4.1574 C   0  0  0  0  0  0  0  0  0  0  0  0
   -3.3081   14.8417    1.4758 N   0  0  0  0  0  0  0  0  0  0  0  0
   -0.0586   14.4987   -0.2070 N   0  0  0  0  0  0  0  0  0  0  0  0
   -1.1574   14.8824    2.2915 O   0  0  0  0  0  0  0  0  0  0  0  0
   -5.7886   14.9710   -1.9051 O   0  0  0  0  0  0  0  0  0  0  0  0
   -4.1752   13.6200   -2.8694 O   0  0  0  0  0  0  0  0  0  0  0  0
   -1.9768   14.3047   -2.0791 H   0  0  0  0  0  0  0  0  0  0  0  0
   -5.2339   14.7969    0.6845 H   0  0  0  0  0  0  0  0  0  0  0  0
   -2.9607   12.5305   -5.0021 H   0  0  0  0  0  0  0  0  0  0  0  0
   -1.9094   13.7479   -4.2419 H   0  0  0  0  0  0  0  0  0  0  0  0
   -2.6349   14.0822   -5.8074 H   0  0  0  0  0  0  0  0  0  0  0  0
   -5.4775   12.9461   -5.1192 H   0  0  0  0  0  0  0  0  0  0  0  0
   -5.2049   14.4634   -5.9622 H   0  0  0  0  0  0  0  0  0  0  0  0
   -6.1634   14.4477   -4.4621 H   0  0  0  0  0  0  0  0  0  0  0  0
   -3.8474   15.2976   -4.0090 H   0  0  0  0  0  0  0  0  0  0  0  0
   -3.7014   14.9832    2.4016 H   0  0  0  0  0  0  0  0  0  0  0  0
    0.3176   14.3596   -1.1201 H   0  0  0  0  0  0  0  0  0  0  0  0
    0.5157   14.5914    0.6026 H   0  0  0  0  0  0  0  0  0  0  0  0
  1  3  1  0  0  0  0
  1  4  2  0  0  0  0
  2  3  2  0  0  0  0
  2 10  1  0  0  0  0
  3  6  1  0  0  0  0
  4  5  1  0  0  0  0
  4 11  1  0  0  0  0
  5 10  1  0  0  0  0
  5 12  2  0  0  0  0
  6 13  2  0  0  0  0
  6 14  1  0  0  0  0
  7  9  1  0  0  0  0
  8  9  1  0  0  0  0
  9 14  1  0  0  0  0
  1 15  1  0  0  0  0
  2 16  1  0  0  0  0
  7 17  1  0  0  0  0
  7 18  1  0  0  0  0
  7 19  1  0  0  0  0
  8 20  1  0  0  0  0
  8 21  1  0  0  0  0
  8 22  1  0  0  0  0
  9 23  1  0  0  0  0
 10 24  1  0  0  0  0
 11 25  1  0  0  0  0
 11 26  1  0  0  0  0
M  END
> <HYBRID receptor title>
5S18(A) > WOY(A-201)

> <HYBRID receptor filename>
experiments/data/docking/5s18.oedu

> <HYBRID Chemgauss4 score>
-6.602834

> <HYBRID receptor title>
5S18(A) > WOY(A-201)

> <HYBRID receptor filename>
experiments/data/docking/5s18.oedu

> <Dock Type>
Hybrid

$$$$
MOL0150
  -OEChem-07032415493D

 21 22  0     0  0  0  0  0  0999 V2000
   -4.5699   15.0933   -4.1798 C   0  0  0  0  0  0  0  0  0  0  0  0
   -3.4384   15.2839   -3.3349 C   0  0  0  0  0  0  0  0  0  0  0  0
   -5.6179   14.4960   -3.5146 C   0  0  0  0  0  0  0  0  0  0  0  0
   -3.6652   14.8247   -2.0556 C   0  0  0  0  0  0  0  0  0  0  0  0
   -1.3453   14.7612   -1.0442 C   0  0  0  0  0  0  0  0  0  0  0  0
   -3.3407   14.9359    0.2737 C   0  0  0  0  0  0  0  0  0  0  0  0
   -2.7945   14.8402   -0.9499 C   0  0  0  0  0  0  0  0  0  0  0  0
   -0.5412   14.7778    0.0333 C   0  0  0  0  0  0  0  0  0  0  0  0
   -1.1802   14.8841    1.3908 C   0  0  0  0  0  0  0  0  0  0  0  0
   -2.5623   14.9561    1.4019 N   0  0  0  0  0  0  0  0  0  0  0  0
    0.8197   14.7061    0.0028 N   0  0  0  0  0  0  0  0  0  0  0  0
   -0.4984   14.9042    2.4140 O   0  0  0  0  0  0  0  0  0  0  0  0
   -5.2364   14.1675   -1.8776 S   0  0  0  0  0  0  0  0  0  0  0  0
   -4.6121   15.3783   -5.2229 H   0  0  0  0  0  0  0  0  0  0  0  0
   -2.5086   15.7359   -3.6578 H   0  0  0  0  0  0  0  0  0  0  0  0
   -6.5890   14.2360   -3.9114 H   0  0  0  0  0  0  0  0  0  0  0  0
   -0.9180   14.6854   -2.0410 H   0  0  0  0  0  0  0  0  0  0  0  0
   -4.4084   15.0009    0.4525 H   0  0  0  0  0  0  0  0  0  0  0  0
   -3.0382   15.0291    2.2964 H   0  0  0  0  0  0  0  0  0  0  0  0
    1.2755   14.6351   -0.8813 H   0  0  0  0  0  0  0  0  0  0  0  0
    1.3194   14.7269    0.8652 H   0  0  0  0  0  0  0  0  0  0  0  0
  1  2  1  0  0  0  0
  1  3  2  0  0  0  0
  2  4  2  0  0  0  0
  3 13  1  0  0  0  0
  4  7  1  0  0  0  0
  4 13  1  0  0  0  0
  5  7  1  0  0  0  0
  5  8  2  0  0  0  0
  6  7  2  0  0  0  0
  6 10  1  0  0  0  0
  8  9  1  0  0  0  0
  8 11  1  0  0  0  0
  9 10  1  0  0  0  0
  9 12  2  0  0  0  0
  1 14  1  0  0  0  0
  2 15  1  0  0  0  0
  3 16  1  0  0  0  0
  5 17  1  0  0  0  0
  6 18  1  0  0  0  0
 10 19  1  0  0  0  0
 11 20  1  0  0  0  0
 11 21  1  0  0  0  0
M  END
> <HYBRID receptor title>
5S18(A) > WOY(A-201)

> <HYBRID receptor filename>
experiments/data/docking/5s18.oedu

> <HYBRID Chemgauss4 score>
-6.596004

> <HYBRID receptor title>
5S18(A) > WOY(A-201)

> <HYBRID receptor filename>
experiments/data/docking/5s18.oedu

> <Dock Type>
Hybrid

$$$$
MOL0228
  -OEChem-07032415493D

 29 30  0     0  0  0  0  0  0999 V2000
   -4.9362   14.4936   -1.0428 C   0  0  0  0  0  0  0  0  0  0  0  0
   -3.3645   14.4938    0.8133 C   0  0  0  0  0  0  0  0  0  0  0  0
   -3.6059   14.4992   -0.5013 C   0  0  0  0  0  0  0  0  0  0  0  0
   -5.9529   14.4833   -0.1734 C   0  0  0  0  0  0  0  0  0  0  0  0
   -5.7577   14.4780    1.3018 C   0  0  0  0  0  0  0  0  0  0  0  0
   -0.3610   14.5285   -3.3772 C   0  0  0  0  0  0  0  0  0  0  0  0
   -1.7166   15.1875   -3.6417 C   0  0  0  0  0  0  0  0  0  0  0  0
   -0.2554   13.8591   -2.0053 C   0  0  0  0  0  0  0  0  0  0  0  0
   -2.8470   14.5156   -2.8738 C   0  0  0  0  0  0  0  0  0  0  0  0
   -1.1591   14.5150   -0.9700 C   0  0  0  0  0  0  0  0  0  0  0  0
   -4.4214   14.4834    1.6985 N   0  0  0  0  0  0  0  0  0  0  0  0
   -2.5608   14.5103   -1.4273 N   0  0  0  0  0  0  0  0  0  0  0  0
   -7.2618   14.4770   -0.5764 N   0  0  0  0  0  0  0  0  0  0  0  0
   -6.7000   14.4693    2.0891 O   0  0  0  0  0  0  0  0  0  0  0  0
   -5.0940   14.4975   -2.1158 H   0  0  0  0  0  0  0  0  0  0  0  0
   -2.3754   14.4975    1.2540 H   0  0  0  0  0  0  0  0  0  0  0  0
   -0.1587   13.7778   -4.1675 H   0  0  0  0  0  0  0  0  0  0  0  0
    0.4404   15.2863   -3.4778 H   0  0  0  0  0  0  0  0  0  0  0  0
   -1.6650   16.2522   -3.3642 H   0  0  0  0  0  0  0  0  0  0  0  0
   -1.9340   15.1586   -4.7199 H   0  0  0  0  0  0  0  0  0  0  0  0
   -0.5113   12.7928   -2.0970 H   0  0  0  0  0  0  0  0  0  0  0  0
    0.7898   13.8988   -1.6595 H   0  0  0  0  0  0  0  0  0  0  0  0
   -3.7858   15.0373   -3.0911 H   0  0  0  0  0  0  0  0  0  0  0  0
   -2.9652   13.4795   -3.2102 H   0  0  0  0  0  0  0  0  0  0  0  0
   -1.0996   13.9708   -0.0210 H   0  0  0  0  0  0  0  0  0  0  0  0
   -0.8063   15.5351   -0.7831 H   0  0  0  0  0  0  0  0  0  0  0  0
   -4.2153   14.4795    2.6932 H   0  0  0  0  0  0  0  0  0  0  0  0
   -7.4556   14.4802   -1.5516 H   0  0  0  0  0  0  0  0  0  0  0  0
   -7.9704   14.4693    0.1204 H   0  0  0  0  0  0  0  0  0  0  0  0
  1  3  1  0  0  0  0
  1  4  2  0  0  0  0
  2  3  2  0  0  0  0
  2 11  1  0  0  0  0
  3 12  1  0  0  0  0
  4  5  1  0  0  0  0
  4 13  1  0  0  0  0
  5 11  1  0  0  0  0
  5 14  2  0  0  0  0
  6  7  1  0  0  0  0
  6  8  1  0  0  0  0
  7  9  1  0  0  0  0
  8 10  1  0  0  0  0
  9 12  1  0  0  0  0
 10 12  1  0  0  0  0
  1 15  1  0  0  0  0
  2 16  1  0  0  0  0
  6 17  1  0  0  0  0
  6 18  1  0  0  0  0
  7 19  1  0  0  0  0
  7 20  1  0  0  0  0
  8 21  1  0  0  0  0
  8 22  1  0  0  0  0
  9 23  1  0  0  0  0
  9 24  1  0  0  0  0
 10 25  1  0  0  0  0
 10 26  1  0  0  0  0
 11 27  1  0  0  0  0
 13 28  1  0  0  0  0
 13 29  1  0  0  0  0
M  END
> <HYBRID receptor title>
5S18(A) > WOY(A-201)

> <HYBRID receptor filename>
experiments/data/docking/5s18.oedu

> <HYBRID Chemgauss4 score>
-6.583691

> <HYBRID receptor title>
5S18(A) > WOY(A-201)

> <HYBRID receptor filename>
experiments/data/docking/5s18.oedu

> <Dock Type>
Hybrid

$$$$
MOL0279
  -OEChem-07032415493D

 29 30  0     1  0  0  0  0  0999 V2000
   -5.0504   14.5054   -0.8931 C   0  0  0  0  0  0  0  0  0  0  0  0
   -3.3725   14.7391    0.8520 C   0  0  0  0  0  0  0  0  0  0  0  0
   -3.6942   14.6479   -0.4421 C   0  0  0  0  0  0  0  0  0  0  0  0
   -6.0072   14.4661    0.0410 C   0  0  0  0  0  0  0  0  0  0  0  0
   -5.7215   14.5632    1.4982 C   0  0  0  0  0  0  0  0  0  0  0  0
   -1.5700   15.3042   -3.3376 C   0  0  0  0  0  0  0  0  0  0  0  0
   -2.9651   15.2059   -2.7378 C   0  0  0  0  0  0  0  0  0  0  0  0
   -1.3849   14.2154   -1.2149 C   0  0  0  0  0  0  0  0  0  0  0  0
   -0.8059   14.1808   -2.6276 C   0  0  2  0  0  0  0  0  0  0  0  0
    0.7009   14.3652   -2.6640 C   0  0  0  0  0  0  0  0  0  0  0  0
   -4.3683   14.6975    1.8046 N   0  0  0  0  0  0  0  0  0  0  0  0
   -2.7465   14.6855   -1.4005 N   0  0  3  0  0  0  0  0  0  0  0  0
   -7.3335   14.3328   -0.2734 N   0  0  0  0  0  0  0  0  0  0  0  0
   -6.6094   14.5266    2.3456 O   0  0  0  0  0  0  0  0  0  0  0  0
   -5.2739   14.4336   -1.9519 H   0  0  0  0  0  0  0  0  0  0  0  0
   -2.3618   14.8468    1.2253 H   0  0  0  0  0  0  0  0  0  0  0  0
   -1.5757   15.1765   -4.4242 H   0  0  0  0  0  0  0  0  0  0  0  0
   -1.1293   16.2818   -3.1071 H   0  0  0  0  0  0  0  0  0  0  0  0
   -3.4587   16.1835   -2.7276 H   0  0  0  0  0  0  0  0  0  0  0  0
   -3.5829   14.5062   -3.3126 H   0  0  0  0  0  0  0  0  0  0  0  0
   -1.3537   13.2214   -0.7553 H   0  0  0  0  0  0  0  0  0  0  0  0
   -0.8387   14.9147   -0.5709 H   0  0  0  0  0  0  0  0  0  0  0  0
   -1.0636   13.2232   -3.0982 H   0  0  0  0  0  0  0  0  0  0  0  0
    0.9771   15.3138   -2.1997 H   0  0  0  0  0  0  0  0  0  0  0  0
    1.0571   14.3642   -3.6960 H   0  0  0  0  0  0  0  0  0  0  0  0
    1.1948   13.5545   -2.1233 H   0  0  0  0  0  0  0  0  0  0  0  0
   -4.1015   14.7685    2.7822 H   0  0  0  0  0  0  0  0  0  0  0  0
   -7.5867   14.2632   -1.2323 H   0  0  0  0  0  0  0  0  0  0  0  0
   -7.9946   14.3103    0.4683 H   0  0  0  0  0  0  0  0  0  0  0  0
  1  3  1  0  0  0  0
  1  4  2  0  0  0  0
  2  3  2  0  0  0  0
  2 11  1  0  0  0  0
  3 12  1  0  0  0  0
  4  5  1  0  0  0  0
  4 13  1  0  0  0  0
  5 11  1  0  0  0  0
  5 14  2  0  0  0  0
  6  7  1  0  0  0  0
  6  9  1  0  0  0  0
  7 12  1  0  0  0  0
  8  9  1  0  0  0  0
  8 12  1  0  0  0  0
  9 10  1  0  0  0  0
  1 15  1  0  0  0  0
  2 16  1  0  0  0  0
  6 17  1  0  0  0  0
  6 18  1  0  0  0  0
  7 19  1  0  0  0  0
  7 20  1  0  0  0  0
  8 21  1  0  0  0  0
  8 22  1  0  0  0  0
  9 23  1  0  0  0  0
 10 24  1  0  0  0  0
 10 25  1  0  0  0  0
 10 26  1  0  0  0  0
 11 27  1  0  0  0  0
 13 28  1  0  0  0  0
 13 29  1  0  0  0  0
M  END
> <HYBRID receptor title>
5S18(A) > WOY(A-201)

> <HYBRID receptor filename>
experiments/data/docking/5s18.oedu

> <HYBRID Chemgauss4 score>
-6.579840

> <HYBRID receptor title>
5S18(A) > WOY(A-201)

> <HYBRID receptor filename>
experiments/data/docking/5s18.oedu

> <Dock Type>
Hybrid

$$$$
MOL0213
  -OEChem-07032415493D

 20 20  0     0  0  0  0  0  0999 V2000
   -1.8499   14.7439   -0.8348 C   0  0  0  0  0  0  0  0  0  0  0  0
   -3.2868   14.6166   -0.6514 C   0  0  0  0  0  0  0  0  0  0  0  0
   -0.9890   14.8974    0.1835 C   0  0  0  0  0  0  0  0  0  0  0  0
   -3.7864   14.6462    0.6011 C   0  0  0  0  0  0  0  0  0  0  0  0
   -1.5530   14.9366    1.5721 C   0  0  0  0  0  0  0  0  0  0  0  0
   -5.2313   14.5112    0.9841 C   0  0  0  0  0  0  0  0  0  0  0  0
   -4.0748   14.4752   -1.9219 C   0  0  0  0  0  0  0  0  0  0  0  0
   -2.9263   14.8038    1.6710 N   0  0  0  0  0  0  0  0  0  0  0  0
    0.3630   15.0213    0.0659 N   0  0  0  0  0  0  0  0  0  0  0  0
   -0.8214   15.0781    2.5506 O   0  0  0  0  0  0  0  0  0  0  0  0
   -5.6516   15.6258    1.6231 F   0  0  0  0  0  0  0  0  0  0  0  0
   -5.9959   14.3713   -0.1205 F   0  0  0  0  0  0  0  0  0  0  0  0
   -3.2606   14.4967   -2.9954 F   0  0  0  0  0  0  0  0  0  0  0  0
   -4.7578   13.3140   -1.9401 F   0  0  0  0  0  0  0  0  0  0  0  0
   -4.9614   15.4820   -2.0505 F   0  0  0  0  0  0  0  0  0  0  0  0
   -1.4736   14.7100   -1.8544 H   0  0  0  0  0  0  0  0  0  0  0  0
   -5.3692   13.6504    1.6306 H   0  0  0  0  0  0  0  0  0  0  0  0
   -3.3366   14.8233    2.6008 H   0  0  0  0  0  0  0  0  0  0  0  0
    0.7686   14.9988   -0.8451 H   0  0  0  0  0  0  0  0  0  0  0  0
    0.9077   15.1310    0.8938 H   0  0  0  0  0  0  0  0  0  0  0  0
  1  2  1  0  0  0  0
  1  3  2  0  0  0  0
  2  4  2  0  0  0  0
  2  7  1  0  0  0  0
  3  5  1  0  0  0  0
  3  9  1  0  0  0  0
  4  6  1  0  0  0  0
  4  8  1  0  0  0  0
  5  8  1  0  0  0  0
  5 10  2  0  0  0  0
  6 11  1  0  0  0  0
  6 12  1  0  0  0  0
  7 13  1  0  0  0  0
  7 14  1  0  0  0  0
  7 15  1  0  0  0  0
  1 16  1  0  0  0  0
  6 17  1  0  0  0  0
  8 18  1  0  0  0  0
  9 19  1  0  0  0  0
  9 20  1  0  0  0  0
M  END
> <HYBRID receptor title>
5S18(A) > WOY(A-201)

> <HYBRID receptor filename>
experiments/data/docking/5s18.oedu

> <HYBRID Chemgauss4 score>
-6.578196

> <HYBRID receptor title>
5S18(A) > WOY(A-201)

> <HYBRID receptor filename>
experiments/data/docking/5s18.oedu

> <Dock Type>
Hybrid

$$$$
MOL0121
  -OEChem-07032415493D

 18 18  0     0  0  0  0  0  0999 V2000
   -3.7157   14.3665   -0.9507 C   0  0  0  0  0  0  0  0  0  0  0  0
   -5.0010   14.3992   -0.2784 C   0  0  0  0  0  0  0  0  0  0  0  0
   -2.5551   14.5915   -0.3115 C   0  0  0  0  0  0  0  0  0  0  0  0
   -5.0291   14.6656    1.0376 C   0  0  0  0  0  0  0  0  0  0  0  0
   -2.6072   14.8884    1.1620 C   0  0  0  0  0  0  0  0  0  0  0  0
   -6.2111   14.1284   -1.1198 C   0  0  0  0  0  0  0  0  0  0  0  0
   -3.8689   14.9019    1.7322 N   0  0  0  0  0  0  0  0  0  0  0  0
   -1.3200   14.5742   -0.8881 N   0  0  0  0  0  0  0  0  0  0  0  0
   -1.5797   15.1033    1.8026 O   0  0  0  0  0  0  0  0  0  0  0  0
   -6.1934   14.7190    1.7646 O   0  0  0  0  0  0  0  0  0  0  0  0
   -5.8642   13.8946   -2.4019 F   0  0  0  0  0  0  0  0  0  0  0  0
   -6.8849   13.0505   -0.6700 F   0  0  0  0  0  0  0  0  0  0  0  0
   -7.0549   15.1804   -1.1039 F   0  0  0  0  0  0  0  0  0  0  0  0
   -3.7148   14.1490   -2.0157 H   0  0  0  0  0  0  0  0  0  0  0  0
   -3.9450   15.0987    2.7256 H   0  0  0  0  0  0  0  0  0  0  0  0
   -1.2502   14.3807   -1.8640 H   0  0  0  0  0  0  0  0  0  0  0  0
   -0.5229   14.7556   -0.3176 H   0  0  0  0  0  0  0  0  0  0  0  0
   -6.0006   14.9233    2.6879 H   0  0  0  0  0  0  0  0  0  0  0  0
  1  2  1  0  0  0  0
  1  3  2  0  0  0  0
  2  4  2  0  0  0  0
  2  6  1  0  0  0  0
  3  5  1  0  0  0  0
  3  8  1  0  0  0  0
  4  7  1  0  0  0  0
  4 10  1  0  0  0  0
  5  7  1  0  0  0  0
  5  9  2  0  0  0  0
  6 11  1  0  0  0  0
  6 12  1  0  0  0  0
  6 13  1  0  0  0  0
  1 14  1  0  0  0  0
  7 15  1  0  0  0  0
  8 16  1  0  0  0  0
  8 17  1  0  0  0  0
 10 18  1  0  0  0  0
M  END
> <HYBRID receptor title>
5S18(A) > WOY(A-201)

> <HYBRID receptor filename>
experiments/data/docking/5s18.oedu

> <HYBRID Chemgauss4 score>
-6.574593

> <HYBRID receptor title>
5S18(A) > WOY(A-201)

> <HYBRID receptor filename>
experiments/data/docking/5s18.oedu

> <Dock Type>
Hybrid

$$$$
MOL0232
  -OEChem-07032415493D

 30 30  0     0  0  0  0  0  0999 V2000
   -1.7460   14.6522   -0.8490 C   0  0  0  0  0  0  0  0  0  0  0  0
   -3.6789   14.9620    0.5383 C   0  0  0  0  0  0  0  0  0  0  0  0
   -3.1822   14.7606   -0.6899 C   0  0  0  0  0  0  0  0  0  0  0  0
   -0.8952   14.7454    0.1876 C   0  0  0  0  0  0  0  0  0  0  0  0
   -1.4727   14.9718    1.5597 C   0  0  0  0  0  0  0  0  0  0  0  0
   -3.6529   15.7525   -2.9120 C   0  0  0  0  0  0  0  0  0  0  0  0
   -5.5173   14.8070   -1.5338 C   0  0  0  0  0  0  0  0  0  0  0  0
   -2.3551   12.0148   -3.9529 C   0  0  0  0  0  0  0  0  0  0  0  0
   -3.7996   13.2708   -2.5889 C   0  0  0  0  0  0  0  0  0  0  0  0
   -4.0330   14.6410   -1.9140 C   0  0  0  0  0  0  0  0  0  0  0  0
   -2.8533   15.0643    1.6272 N   0  0  0  0  0  0  0  0  0  0  0  0
    0.4622   14.6521    0.1049 N   0  0  0  0  0  0  0  0  0  0  0  0
   -0.7452   15.0655    2.5466 O   0  0  0  0  0  0  0  0  0  0  0  0
   -2.6039   13.2819   -3.3621 O   0  0  0  0  0  0  0  0  0  0  0  0
   -1.3651   14.4894   -1.8536 H   0  0  0  0  0  0  0  0  0  0  0  0
   -4.7384   15.0543    0.7427 H   0  0  0  0  0  0  0  0  0  0  0  0
   -4.2599   15.6930   -3.8231 H   0  0  0  0  0  0  0  0  0  0  0  0
   -2.6001   15.6757   -3.2100 H   0  0  0  0  0  0  0  0  0  0  0  0
   -3.8026   16.7489   -2.4798 H   0  0  0  0  0  0  0  0  0  0  0  0
   -6.1670   14.7240   -2.4126 H   0  0  0  0  0  0  0  0  0  0  0  0
   -5.8383   14.0481   -0.8115 H   0  0  0  0  0  0  0  0  0  0  0  0
   -5.7003   15.7874   -1.0785 H   0  0  0  0  0  0  0  0  0  0  0  0
   -1.4326   12.0588   -4.5375 H   0  0  0  0  0  0  0  0  0  0  0  0
   -2.2475   11.2686   -3.1620 H   0  0  0  0  0  0  0  0  0  0  0  0
   -3.1941   11.7411   -4.5967 H   0  0  0  0  0  0  0  0  0  0  0  0
   -4.6334   13.0135   -3.2526 H   0  0  0  0  0  0  0  0  0  0  0  0
   -3.7041   12.4763   -1.8401 H   0  0  0  0  0  0  0  0  0  0  0  0
   -3.2785   15.2169    2.5370 H   0  0  0  0  0  0  0  0  0  0  0  0
    0.8780   14.5025   -0.7892 H   0  0  0  0  0  0  0  0  0  0  0  0
    0.9994   14.7362    0.9404 H   0  0  0  0  0  0  0  0  0  0  0  0
  1  3  1  0  0  0  0
  1  4  2  0  0  0  0
  2  3  2  0  0  0  0
  2 11  1  0  0  0  0
  3 10  1  0  0  0  0
  4  5  1  0  0  0  0
  4 12  1  0  0  0  0
  5 11  1  0  0  0  0
  5 13  2  0  0  0  0
  6 10  1  0  0  0  0
  7 10  1  0  0  0  0
  8 14  1  0  0  0  0
  9 10  1  0  0  0  0
  9 14  1  0  0  0  0
  1 15  1  0  0  0  0
  2 16  1  0  0  0  0
  6 17  1  0  0  0  0
  6 18  1  0  0  0  0
  6 19  1  0  0  0  0
  7 20  1  0  0  0  0
  7 21  1  0  0  0  0
  7 22  1  0  0  0  0
  8 23  1  0  0  0  0
  8 24  1  0  0  0  0
  8 25  1  0  0  0  0
  9 26  1  0  0  0  0
  9 27  1  0  0  0  0
 11 28  1  0  0  0  0
 12 29  1  0  0  0  0
 12 30  1  0  0  0  0
M  END
> <HYBRID receptor title>
5S18(A) > WOY(A-201)

> <HYBRID receptor filename>
experiments/data/docking/5s18.oedu

> <HYBRID Chemgauss4 score>
-6.570728

> <HYBRID receptor title>
5S18(A) > WOY(A-201)

> <HYBRID receptor filename>
experiments/data/docking/5s18.oedu

> <Dock Type>
Hybrid

$$$$
MOL0384
  -OEChem-07032415493D

 23 23  0     0  0  0  0  0  0999 V2000
   -2.4222   14.6969   -1.0001 C   0  0  0  0  0  0  0  0  0  0  0  0
   -4.1004   14.9097    0.7015 C   0  0  0  0  0  0  0  0  0  0  0  0
   -3.8123   14.7918   -0.6019 C   0  0  0  0  0  0  0  0  0  0  0  0
   -1.4131   14.7222   -0.1124 C   0  0  0  0  0  0  0  0  0  0  0  0
   -1.7572   14.8554    1.3475 C   0  0  0  0  0  0  0  0  0  0  0  0
   -4.7586   13.4441   -2.4457 C   0  0  0  0  0  0  0  0  0  0  0  0
   -4.6769   15.9567   -2.5887 C   0  0  0  0  0  0  0  0  0  0  0  0
   -4.8522   14.7526   -1.6760 C   0  0  0  0  0  0  0  0  0  0  0  0
   -3.1075   14.9406    1.6453 N   0  0  0  0  0  0  0  0  0  0  0  0
   -0.0882   14.6372   -0.4215 N   0  0  0  0  0  0  0  0  0  0  0  0
   -0.8778   14.8843    2.2065 O   0  0  0  0  0  0  0  0  0  0  0  0
   -6.0963   14.8246   -1.1221 F   0  0  0  0  0  0  0  0  0  0  0  0
   -2.2116   14.6023   -2.0620 H   0  0  0  0  0  0  0  0  0  0  0  0
   -5.1115   14.9862    1.0817 H   0  0  0  0  0  0  0  0  0  0  0  0
   -5.5178   13.4080   -3.2348 H   0  0  0  0  0  0  0  0  0  0  0  0
   -3.7830   13.3496   -2.9359 H   0  0  0  0  0  0  0  0  0  0  0  0
   -4.9076   12.5764   -1.7942 H   0  0  0  0  0  0  0  0  0  0  0  0
   -5.4271   15.9529   -3.3859 H   0  0  0  0  0  0  0  0  0  0  0  0
   -4.8117   16.8876   -2.0274 H   0  0  0  0  0  0  0  0  0  0  0  0
   -3.6812   15.9790   -3.0443 H   0  0  0  0  0  0  0  0  0  0  0  0
   -3.3773   15.0313    2.6205 H   0  0  0  0  0  0  0  0  0  0  0  0
    0.1750   14.5485   -1.3794 H   0  0  0  0  0  0  0  0  0  0  0  0
    0.5788   14.6664    0.3188 H   0  0  0  0  0  0  0  0  0  0  0  0
  1  3  1  0  0  0  0
  1  4  2  0  0  0  0
  2  3  2  0  0  0  0
  2  9  1  0  0  0  0
  3  8  1  0  0  0  0
  4  5  1  0  0  0  0
  4 10  1  0  0  0  0
  5  9  1  0  0  0  0
  5 11  2  0  0  0  0
  6  8  1  0  0  0  0
  7  8  1  0  0  0  0
  8 12  1  0  0  0  0
  1 13  1  0  0  0  0
  2 14  1  0  0  0  0
  6 15  1  0  0  0  0
  6 16  1  0  0  0  0
  6 17  1  0  0  0  0
  7 18  1  0  0  0  0
  7 19  1  0  0  0  0
  7 20  1  0  0  0  0
  9 21  1  0  0  0  0
 10 22  1  0  0  0  0
 10 23  1  0  0  0  0
M  END
> <HYBRID receptor title>
5S18(A) > WOY(A-201)

> <HYBRID receptor filename>
experiments/data/docking/5s18.oedu

> <HYBRID Chemgauss4 score>
-6.564653

> <HYBRID receptor title>
5S18(A) > WOY(A-201)

> <HYBRID receptor filename>
experiments/data/docking/5s18.oedu

> <Dock Type>
Hybrid

$$$$
MOL0273
  -OEChem-07032415493D

 25 25  0     1  0  0  0  0  0999 V2000
   -2.7788   14.7367   -1.0933 C   0  0  0  0  0  0  0  0  0  0  0  0
   -4.2365   15.1093    0.7757 C   0  0  0  0  0  0  0  0  0  0  0  0
   -4.0970   15.0008   -0.5527 C   0  0  0  0  0  0  0  0  0  0  0  0
   -1.6930   14.5963   -0.3134 C   0  0  0  0  0  0  0  0  0  0  0  0
   -1.8702   14.7218    1.1767 C   0  0  0  0  0  0  0  0  0  0  0  0
   -5.1034   13.0089   -2.8246 C   0  0  0  0  0  0  0  0  0  0  0  0
   -5.2335   15.1382   -1.5151 C   0  0  0  0  0  0  0  0  0  0  0  0
   -5.8832   13.7828   -1.7688 C   0  0  1  0  0  0  0  0  0  0  0  0
   -3.1604   14.9746    1.6132 N   0  0  0  0  0  0  0  0  0  0  0  0
   -0.4288   14.3474   -0.7585 N   0  0  0  0  0  0  0  0  0  0  0  0
   -7.2225   13.9162   -2.2864 N   0  0  0  0  0  0  0  0  0  0  0  0
   -0.9146   14.6033    1.9414 O   0  0  0  0  0  0  0  0  0  0  0  0
   -2.6887   14.6529   -2.1730 H   0  0  0  0  0  0  0  0  0  0  0  0
   -5.1855   15.3056    1.2591 H   0  0  0  0  0  0  0  0  0  0  0  0
   -5.0214   13.5727   -3.7647 H   0  0  0  0  0  0  0  0  0  0  0  0
   -4.0761   12.7656   -2.5183 H   0  0  0  0  0  0  0  0  0  0  0  0
   -5.5865   12.0579   -3.0902 H   0  0  0  0  0  0  0  0  0  0  0  0
   -4.8488   15.5798   -2.4400 H   0  0  0  0  0  0  0  0  0  0  0  0
   -5.9551   15.8340   -1.0751 H   0  0  0  0  0  0  0  0  0  0  0  0
   -5.9514   13.2018   -0.8429 H   0  0  0  0  0  0  0  0  0  0  0  0
   -3.3179   15.0655    2.6126 H   0  0  0  0  0  0  0  0  0  0  0  0
   -0.2758   14.2588   -1.7400 H   0  0  0  0  0  0  0  0  0  0  0  0
    0.3057   14.2615   -0.0900 H   0  0  0  0  0  0  0  0  0  0  0  0
   -7.8211   14.3686   -1.5919 H   0  0  0  0  0  0  0  0  0  0  0  0
   -7.6304   12.9913   -2.4414 H   0  0  0  0  0  0  0  0  0  0  0  0
  1  3  1  0  0  0  0
  1  4  2  0  0  0  0
  2  3  2  0  0  0  0
  2  9  1  0  0  0  0
  3  7  1  0  0  0  0
  4  5  1  0  0  0  0
  4 10  1  0  0  0  0
  5  9  1  0  0  0  0
  5 12  2  0  0  0  0
  6  8  1  0  0  0  0
  7  8  1  0  0  0  0
  8 11  1  0  0  0  0
  1 13  1  0  0  0  0
  2 14  1  0  0  0  0
  6 15  1  0  0  0  0
  6 16  1  0  0  0  0
  6 17  1  0  0  0  0
  7 18  1  0  0  0  0
  7 19  1  0  0  0  0
  8 20  1  0  0  0  0
  9 21  1  0  0  0  0
 10 22  1  0  0  0  0
 10 23  1  0  0  0  0
 11 24  1  0  0  0  0
 11 25  1  0  0  0  0
M  END
> <HYBRID receptor title>
5S18(A) > WOY(A-201)

> <HYBRID receptor filename>
experiments/data/docking/5s18.oedu

> <HYBRID Chemgauss4 score>
-6.563254

> <HYBRID receptor title>
5S18(A) > WOY(A-201)

> <HYBRID receptor filename>
experiments/data/docking/5s18.oedu

> <Dock Type>
Hybrid

$$$$
MOL0321
  -OEChem-07032415493D

 33 34  0     1  0  0  0  0  0999 V2000
   -4.0087   14.6068   -1.2624 C   0  0  0  0  0  0  0  0  0  0  0  0
   -2.8581   14.7610    0.8748 C   0  0  0  0  0  0  0  0  0  0  0  0
   -2.8204   14.6679   -0.4580 C   0  0  0  0  0  0  0  0  0  0  0  0
   -5.1843   14.6475   -0.6251 C   0  0  0  0  0  0  0  0  0  0  0  0
   -5.3006   14.7519    0.8547 C   0  0  0  0  0  0  0  0  0  0  0  0
   -0.3377   14.6752   -0.4862 C   0  0  0  0  0  0  0  0  0  0  0  0
    0.5933   14.1849   -1.5868 C   0  0  2  0  0  0  0  0  0  0  0  0
   -1.4488   14.6007   -2.5760 C   0  0  0  0  0  0  0  0  0  0  0  0
    1.9954   14.7533   -1.4922 C   0  0  0  0  0  0  0  0  0  0  0  0
   -2.0169   13.3205   -3.1874 C   0  0  0  0  0  0  0  0  0  0  0  0
   -2.0289   15.8458   -3.2408 C   0  0  0  0  0  0  0  0  0  0  0  0
   -4.0762   14.8023    1.5192 N   0  0  0  0  0  0  0  0  0  0  0  0
   -1.6373   14.6253   -1.1265 N   0  0  3  0  0  0  0  0  0  0  0  0
   -6.3805   14.5961   -1.2900 N   0  0  0  0  0  0  0  0  0  0  0  0
   -6.3862   14.7891    1.4273 O   0  0  0  0  0  0  0  0  0  0  0  0
   -0.0236   14.6181   -2.8113 O   0  0  0  0  0  0  0  0  0  0  0  0
   -3.9395   14.5308   -2.3420 H   0  0  0  0  0  0  0  0  0  0  0  0
   -1.9825   14.8086    1.5101 H   0  0  0  0  0  0  0  0  0  0  0  0
   -0.2731   14.0400    0.4037 H   0  0  0  0  0  0  0  0  0  0  0  0
   -0.1157   15.7097   -0.1996 H   0  0  0  0  0  0  0  0  0  0  0  0
    0.6334   13.0887   -1.5992 H   0  0  0  0  0  0  0  0  0  0  0  0
    1.9633   15.8453   -1.4793 H   0  0  0  0  0  0  0  0  0  0  0  0
    2.5945   14.4332   -2.3479 H   0  0  0  0  0  0  0  0  0  0  0  0
    2.4851   14.4093   -0.5772 H   0  0  0  0  0  0  0  0  0  0  0  0
   -1.5844   12.4529   -2.6928 H   0  0  0  0  0  0  0  0  0  0  0  0
   -1.7793   13.2824   -4.2487 H   0  0  0  0  0  0  0  0  0  0  0  0
   -3.0986   13.3008   -3.0625 H   0  0  0  0  0  0  0  0  0  0  0  0
   -1.6063   16.7400   -2.7851 H   0  0  0  0  0  0  0  0  0  0  0  0
   -3.1109   15.8612   -3.1179 H   0  0  0  0  0  0  0  0  0  0  0  0
   -1.7920   15.8427   -4.3046 H   0  0  0  0  0  0  0  0  0  0  0  0
   -4.0819   14.8732    2.5325 H   0  0  0  0  0  0  0  0  0  0  0  0
   -6.3669   14.5261   -2.2816 H   0  0  0  0  0  0  0  0  0  0  0  0
   -7.2187   14.6306   -0.7571 H   0  0  0  0  0  0  0  0  0  0  0  0
  1  3  1  0  0  0  0
  1  4  2  0  0  0  0
  2  3  2  0  0  0  0
  2 12  1  0  0  0  0
  3 13  1  0  0  0  0
  4  5  1  0  0  0  0
  4 14  1  0  0  0  0
  5 12  1  0  0  0  0
  5 15  2  0  0  0  0
  6  7  1  0  0  0  0
  6 13  1  0  0  0  0
  7  9  1  0  0  0  0
  7 16  1  0  0  0  0
  8 10  1  0  0  0  0
  8 11  1  0  0  0  0
  8 13  1  0  0  0  0
  8 16  1  0  0  0  0
  1 17  1  0  0  0  0
  2 18  1  0  0  0  0
  6 19  1  0  0  0  0
  6 20  1  0  0  0  0
  7 21  1  0  0  0  0
  9 22  1  0  0  0  0
  9 23  1  0  0  0  0
  9 24  1  0  0  0  0
 10 25  1  0  0  0  0
 10 26  1  0  0  0  0
 10 27  1  0  0  0  0
 11 28  1  0  0  0  0
 11 29  1  0  0  0  0
 11 30  1  0  0  0  0
 12 31  1  0  0  0  0
 14 32  1  0  0  0  0
 14 33  1  0  0  0  0
M  END
> <HYBRID receptor title>
5S18(A) > WOY(A-201)

> <HYBRID receptor filename>
experiments/data/docking/5s18.oedu

> <HYBRID Chemgauss4 score>
-6.560931

> <HYBRID receptor title>
5S18(A) > WOY(A-201)

> <HYBRID receptor filename>
experiments/data/docking/5s18.oedu

> <Dock Type>
Hybrid

$$$$
MOL0047
  -OEChem-07032415493D

 27 28  0     0  0  0  0  0  0999 V2000
   -2.1989   14.3950   -0.8473 C   0  0  0  0  0  0  0  0  0  0  0  0
   -3.9556   14.9670    0.6836 C   0  0  0  0  0  0  0  0  0  0  0  0
   -3.5964   14.6596   -0.5703 C   0  0  0  0  0  0  0  0  0  0  0  0
   -1.2514   14.4460    0.1049 C   0  0  0  0  0  0  0  0  0  0  0  0
   -1.6749   14.7933    1.5076 C   0  0  0  0  0  0  0  0  0  0  0  0
   -4.6184   14.4513   -3.8278 C   0  0  0  0  0  0  0  0  0  0  0  0
   -4.3246   15.5873   -2.8338 C   0  0  0  0  0  0  0  0  0  0  0  0
   -4.3183   13.4504   -2.6992 C   0  0  0  0  0  0  0  0  0  0  0  0
   -4.5919   14.5880   -1.6584 C   0  0  0  0  0  0  0  0  0  0  0  0
   -6.0327   14.6164   -1.1388 C   0  0  0  0  0  0  0  0  0  0  0  0
   -3.0274   15.0321    1.6895 N   0  0  0  0  0  0  0  0  0  0  0  0
    0.0765   14.2081   -0.0901 N   0  0  0  0  0  0  0  0  0  0  0  0
   -0.8539   14.8556    2.4210 O   0  0  0  0  0  0  0  0  0  0  0  0
   -6.2501   15.7520   -0.4616 F   0  0  0  0  0  0  0  0  0  0  0  0
   -6.2434   13.5733   -0.3246 F   0  0  0  0  0  0  0  0  0  0  0  0
   -6.8887   14.5494   -2.1676 F   0  0  0  0  0  0  0  0  0  0  0  0
   -1.9327   14.1478   -1.8712 H   0  0  0  0  0  0  0  0  0  0  0  0
   -4.9765   15.1790    0.9768 H   0  0  0  0  0  0  0  0  0  0  0  0
   -5.6574   14.4264   -4.1751 H   0  0  0  0  0  0  0  0  0  0  0  0
   -3.9557   14.3981   -4.6955 H   0  0  0  0  0  0  0  0  0  0  0  0
   -3.2915   15.9526   -2.8965 H   0  0  0  0  0  0  0  0  0  0  0  0
   -4.9962   16.4487   -2.9013 H   0  0  0  0  0  0  0  0  0  0  0  0
   -4.9860   12.5843   -2.6575 H   0  0  0  0  0  0  0  0  0  0  0  0
   -3.2839   13.0846   -2.7163 H   0  0  0  0  0  0  0  0  0  0  0  0
   -3.3498   15.2692    2.6231 H   0  0  0  0  0  0  0  0  0  0  0  0
    0.3914   13.9756   -1.0074 H   0  0  0  0  0  0  0  0  0  0  0  0
    0.6941   14.2736    0.6897 H   0  0  0  0  0  0  0  0  0  0  0  0
  1  3  1  0  0  0  0
  1  4  2  0  0  0  0
  2  3  2  0  0  0  0
  2 11  1  0  0  0  0
  3  9  1  0  0  0  0
  4  5  1  0  0  0  0
  4 12  1  0  0  0  0
  5 11  1  0  0  0  0
  5 13  2  0  0  0  0
  6  7  1  0  0  0  0
  6  8  1  0  0  0  0
  7  9  1  0  0  0  0
  8  9  1  0  0  0  0
  9 10  1  0  0  0  0
 10 14  1  0  0  0  0
 10 15  1  0  0  0  0
 10 16  1  0  0  0  0
  1 17  1  0  0  0  0
  2 18  1  0  0  0  0
  6 19  1  0  0  0  0
  6 20  1  0  0  0  0
  7 21  1  0  0  0  0
  7 22  1  0  0  0  0
  8 23  1  0  0  0  0
  8 24  1  0  0  0  0
 11 25  1  0  0  0  0
 12 26  1  0  0  0  0
 12 27  1  0  0  0  0
M  END
> <HYBRID receptor title>
5S18(A) > WOY(A-201)

> <HYBRID receptor filename>
experiments/data/docking/5s18.oedu

> <HYBRID Chemgauss4 score>
-6.559611

> <HYBRID receptor title>
5S18(A) > WOY(A-201)

> <HYBRID receptor filename>
experiments/data/docking/5s18.oedu

> <Dock Type>
Hybrid

$$$$
MOL0157
  -OEChem-07032415493D

 22 22  0     1  0  0  0  0  0999 V2000
   -3.2312   14.7197   -1.0186 C   0  0  0  0  0  0  0  0  0  0  0  0
   -4.6903   14.7213    0.8860 C   0  0  0  0  0  0  0  0  0  0  0  0
   -4.5620   14.6751   -0.4470 C   0  0  0  0  0  0  0  0  0  0  0  0
   -2.1228   14.8050   -0.2628 C   0  0  0  0  0  0  0  0  0  0  0  0
   -2.2878   14.8559    1.2331 C   0  0  0  0  0  0  0  0  0  0  0  0
   -5.6729   13.2863   -2.1742 C   0  0  0  0  0  0  0  0  0  0  0  0
   -5.7234   14.5797   -1.3844 C   0  0  1  0  0  0  0  0  0  0  0  0
   -3.5913   14.8087    1.6998 N   0  0  0  0  0  0  0  0  0  0  0  0
   -0.8459   14.8505   -0.7375 N   0  0  0  0  0  0  0  0  0  0  0  0
   -6.8913   14.6558   -0.5514 N   0  0  0  0  0  0  0  0  0  0  0  0
   -1.3116   14.9342    1.9767 O   0  0  0  0  0  0  0  0  0  0  0  0
   -3.1505   14.6813   -2.1016 H   0  0  0  0  0  0  0  0  0  0  0  0
   -5.6475   14.6931    1.3919 H   0  0  0  0  0  0  0  0  0  0  0  0
   -5.6747   12.4206   -1.5027 H   0  0  0  0  0  0  0  0  0  0  0  0
   -4.7691   13.2401   -2.7914 H   0  0  0  0  0  0  0  0  0  0  0  0
   -6.5363   13.1889   -2.8423 H   0  0  0  0  0  0  0  0  0  0  0  0
   -5.7221   15.4498   -2.0457 H   0  0  0  0  0  0  0  0  0  0  0  0
   -3.7412   14.8408    2.7040 H   0  0  0  0  0  0  0  0  0  0  0  0
   -0.7005   14.8192   -1.7237 H   0  0  0  0  0  0  0  0  0  0  0  0
   -0.0947   14.9139   -0.0852 H   0  0  0  0  0  0  0  0  0  0  0  0
   -7.7364   14.6893   -1.1290 H   0  0  0  0  0  0  0  0  0  0  0  0
   -6.8909   15.5316   -0.0198 H   0  0  0  0  0  0  0  0  0  0  0  0
  1  3  1  0  0  0  0
  1  4  2  0  0  0  0
  2  3  2  0  0  0  0
  2  8  1  0  0  0  0
  3  7  1  0  0  0  0
  4  5  1  0  0  0  0
  4  9  1  0  0  0  0
  5  8  1  0  0  0  0
  5 11  2  0  0  0  0
  6  7  1  0  0  0  0
  7 10  1  0  0  0  0
  1 12  1  0  0  0  0
  2 13  1  0  0  0  0
  6 14  1  0  0  0  0
  6 15  1  0  0  0  0
  6 16  1  0  0  0  0
  7 17  1  0  0  0  0
  8 18  1  0  0  0  0
  9 19  1  0  0  0  0
  9 20  1  0  0  0  0
 10 21  1  0  0  0  0
 10 22  1  0  0  0  0
M  END
> <HYBRID receptor title>
5S18(A) > WOY(A-201)

> <HYBRID receptor filename>
experiments/data/docking/5s18.oedu

> <HYBRID Chemgauss4 score>
-6.557760

> <HYBRID receptor title>
5S18(A) > WOY(A-201)

> <HYBRID receptor filename>
experiments/data/docking/5s18.oedu

> <Dock Type>
Hybrid

$$$$
MOL0242
  -OEChem-07032415493D

 21 21  0     0  0  0  0  0  0999 V2000
   -3.0191   14.6918   -1.1622 C   0  0  0  0  0  0  0  0  0  0  0  0
   -4.6786   14.8034    0.5670 C   0  0  0  0  0  0  0  0  0  0  0  0
   -4.4056   14.7052   -0.7412 C   0  0  0  0  0  0  0  0  0  0  0  0
   -1.9987   14.7735   -0.2909 C   0  0  0  0  0  0  0  0  0  0  0  0
   -2.3260   14.8832    1.1748 C   0  0  0  0  0  0  0  0  0  0  0  0
   -5.4589   14.6083   -1.7985 C   0  0  0  0  0  0  0  0  0  0  0  0
   -6.7408   15.3278   -1.4036 C   0  0  0  0  0  0  0  0  0  0  0  0
   -3.6739   14.8895    1.4948 N   0  0  0  0  0  0  0  0  0  0  0  0
   -0.6764   14.7660   -0.6217 N   0  0  0  0  0  0  0  0  0  0  0  0
   -1.4358   14.9611    2.0195 O   0  0  0  0  0  0  0  0  0  0  0  0
   -7.2831   14.7325   -0.2322 O   0  0  0  0  0  0  0  0  0  0  0  0
   -2.8207   14.6119   -2.2276 H   0  0  0  0  0  0  0  0  0  0  0  0
   -5.6862   14.8203    0.9638 H   0  0  0  0  0  0  0  0  0  0  0  0
   -5.6666   13.5489   -1.9806 H   0  0  0  0  0  0  0  0  0  0  0  0
   -5.0611   15.0427   -2.7211 H   0  0  0  0  0  0  0  0  0  0  0  0
   -7.4807   15.2306   -2.2047 H   0  0  0  0  0  0  0  0  0  0  0  0
   -6.5672   16.3924   -1.2140 H   0  0  0  0  0  0  0  0  0  0  0  0
   -3.9325   14.9622    2.4744 H   0  0  0  0  0  0  0  0  0  0  0  0
   -0.4242   14.6948   -1.5840 H   0  0  0  0  0  0  0  0  0  0  0  0
   -0.0002   14.8320    0.1078 H   0  0  0  0  0  0  0  0  0  0  0  0
   -8.0943   15.2215   -0.0199 H   0  0  0  0  0  0  0  0  0  0  0  0
  1  3  1  0  0  0  0
  1  4  2  0  0  0  0
  2  3  2  0  0  0  0
  2  8  1  0  0  0  0
  3  6  1  0  0  0  0
  4  5  1  0  0  0  0
  4  9  1  0  0  0  0
  5  8  1  0  0  0  0
  5 10  2  0  0  0  0
  6  7  1  0  0  0  0
  7 11  1  0  0  0  0
  1 12  1  0  0  0  0
  2 13  1  0  0  0  0
  6 14  1  0  0  0  0
  6 15  1  0  0  0  0
  7 16  1  0  0  0  0
  7 17  1  0  0  0  0
  8 18  1  0  0  0  0
  9 19  1  0  0  0  0
  9 20  1  0  0  0  0
 11 21  1  0  0  0  0
M  END
> <HYBRID receptor title>
5S18(A) > WOY(A-201)

> <HYBRID receptor filename>
experiments/data/docking/5s18.oedu

> <HYBRID Chemgauss4 score>
-6.551043

> <HYBRID receptor title>
5S18(A) > WOY(A-201)

> <HYBRID receptor filename>
experiments/data/docking/5s18.oedu

> <Dock Type>
Hybrid

$$$$
MOL0219
  -OEChem-07032415493D

 33 34  0     0  0  0  0  0  0999 V2000
   -0.4266   15.4825   -3.5157 C   0  0  0  0  0  0  0  0  0  0  0  0
   -0.9772   13.2863   -2.6722 C   0  0  0  0  0  0  0  0  0  0  0  0
    0.9283   15.1521   -3.4894 C   0  0  0  0  0  0  0  0  0  0  0  0
    0.3777   12.9560   -2.6460 C   0  0  0  0  0  0  0  0  0  0  0  0
   -1.3794   14.5493   -3.1071 C   0  0  0  0  0  0  0  0  0  0  0  0
    1.3305   13.8891   -3.0545 C   0  0  0  0  0  0  0  0  0  0  0  0
   -4.7151   14.5965    0.6374 C   0  0  0  0  0  0  0  0  0  0  0  0
   -4.7795   14.4384   -1.7540 C   0  0  0  0  0  0  0  0  0  0  0  0
   -5.4293   14.3229   -0.5882 C   0  0  0  0  0  0  0  0  0  0  0  0
   -3.4230   14.9616    0.6501 C   0  0  0  0  0  0  0  0  0  0  0  0
   -2.6971   15.0884   -0.6662 C   0  0  0  0  0  0  0  0  0  0  0  0
   -2.8384   14.9041   -3.1363 C   0  0  0  0  0  0  0  0  0  0  0  0
    2.7793   13.5367   -3.0259 C   0  0  0  0  0  0  0  0  0  0  0  0
   -6.8670   13.9223   -0.4832 C   0  0  0  0  0  0  0  0  0  0  0  0
   -3.4495   14.8104   -1.8147 N   0  0  0  0  0  0  0  0  0  0  0  0
   -2.6979   15.2324    1.7734 N   0  0  0  0  0  0  0  0  0  0  0  0
   -1.5113   15.4210   -0.6746 O   0  0  0  0  0  0  0  0  0  0  0  0
    3.5985   14.5432   -3.4515 F   0  0  0  0  0  0  0  0  0  0  0  0
    3.0747   12.4652   -3.8182 F   0  0  0  0  0  0  0  0  0  0  0  0
    3.2350   13.2083   -1.7807 F   0  0  0  0  0  0  0  0  0  0  0  0
   -7.2665   13.8846    0.8053 F   0  0  0  0  0  0  0  0  0  0  0  0
   -7.6655   14.7916   -1.1369 F   0  0  0  0  0  0  0  0  0  0  0  0
   -7.0691   12.6980   -1.0139 F   0  0  0  0  0  0  0  0  0  0  0  0
   -0.7308   16.4683   -3.8572 H   0  0  0  0  0  0  0  0  0  0  0  0
   -1.7126   12.5535   -2.3508 H   0  0  0  0  0  0  0  0  0  0  0  0
    1.6638   15.8854   -3.8099 H   0  0  0  0  0  0  0  0  0  0  0  0
    0.6818   11.9696   -2.3060 H   0  0  0  0  0  0  0  0  0  0  0  0
   -5.2630   14.4974    1.5706 H   0  0  0  0  0  0  0  0  0  0  0  0
   -5.2689   14.2445   -2.7028 H   0  0  0  0  0  0  0  0  0  0  0  0
   -2.9797   15.9266   -3.5018 H   0  0  0  0  0  0  0  0  0  0  0  0
   -3.3909   14.2391   -3.8083 H   0  0  0  0  0  0  0  0  0  0  0  0
   -3.1461   15.1584    2.6606 H   0  0  0  0  0  0  0  0  0  0  0  0
   -1.7421   15.4958    1.6729 H   0  0  0  0  0  0  0  0  0  0  0  0
  1  3  2  0  0  0  0
  1  5  1  0  0  0  0
  2  4  1  0  0  0  0
  2  5  2  0  0  0  0
  3  6  1  0  0  0  0
  4  6  2  0  0  0  0
  5 12  1  0  0  0  0
  6 13  1  0  0  0  0
  7  9  1  0  0  0  0
  7 10  2  0  0  0  0
  8  9  2  0  0  0  0
  8 15  1  0  0  0  0
  9 14  1  0  0  0  0
 10 11  1  0  0  0  0
 10 16  1  0  0  0  0
 11 15  1  0  0  0  0
 11 17  2  0  0  0  0
 12 15  1  0  0  0  0
 13 18  1  0  0  0  0
 13 19  1  0  0  0  0
 13 20  1  0  0  0  0
 14 21  1  0  0  0  0
 14 22  1  0  0  0  0
 14 23  1  0  0  0  0
  1 24  1  0  0  0  0
  2 25  1  0  0  0  0
  3 26  1  0  0  0  0
  4 27  1  0  0  0  0
  7 28  1  0  0  0  0
  8 29  1  0  0  0  0
 12 30  1  0  0  0  0
 12 31  1  0  0  0  0
 16 32  1  0  0  0  0
 16 33  1  0  0  0  0
M  END
> <HYBRID receptor title>
5S18(A) > WOY(A-201)

> <HYBRID receptor filename>
experiments/data/docking/5s18.oedu

> <HYBRID Chemgauss4 score>
-6.543382

> <HYBRID receptor title>
5S18(A) > WOY(A-201)

> <HYBRID receptor filename>
experiments/data/docking/5s18.oedu

> <Dock Type>
Hybrid

$$$$
MOL0351
  -OEChem-07032415493D

 29 29  0     1  0  0  0  0  0999 V2000
   -2.1230   14.5754   -1.1575 C   0  0  0  0  0  0  0  0  0  0  0  0
   -3.8008   15.1848    0.4456 C   0  0  0  0  0  0  0  0  0  0  0  0
   -3.4739   14.9919   -0.8396 C   0  0  0  0  0  0  0  0  0  0  0  0
   -1.1875   14.3752   -0.2132 C   0  0  0  0  0  0  0  0  0  0  0  0
   -1.5742   14.5972    1.2251 C   0  0  0  0  0  0  0  0  0  0  0  0
   -7.0550   14.5553   -0.6601 C   0  0  0  0  0  0  0  0  0  0  0  0
   -4.2819   12.7840   -2.7862 C   0  0  0  0  0  0  0  0  0  0  0  0
   -4.4299   15.1836   -1.9696 C   0  0  0  0  0  0  0  0  0  0  0  0
   -6.0818   13.4829   -1.1298 C   0  0  0  0  0  0  0  0  0  0  0  0
   -5.2210   13.9099   -2.3368 C   0  0  2  0  0  0  0  0  0  0  0  0
   -2.8831   14.9943    1.4452 N   0  0  0  0  0  0  0  0  0  0  0  0
    0.0974   13.9841   -0.4459 N   0  0  0  0  0  0  0  0  0  0  0  0
   -0.7623   14.4303    2.1333 O   0  0  0  0  0  0  0  0  0  0  0  0
   -1.8796   14.4252   -2.2059 H   0  0  0  0  0  0  0  0  0  0  0  0
   -4.7870   15.4958    0.7673 H   0  0  0  0  0  0  0  0  0  0  0  0
   -6.5303   15.4818   -0.4109 H   0  0  0  0  0  0  0  0  0  0  0  0
   -7.5840   14.2135    0.2355 H   0  0  0  0  0  0  0  0  0  0  0  0
   -7.8095   14.7760   -1.4215 H   0  0  0  0  0  0  0  0  0  0  0  0
   -3.5856   12.5055   -1.9899 H   0  0  0  0  0  0  0  0  0  0  0  0
   -4.8390   11.8785   -3.0478 H   0  0  0  0  0  0  0  0  0  0  0  0
   -3.6954   13.0843   -3.6610 H   0  0  0  0  0  0  0  0  0  0  0  0
   -5.1258   15.9899   -1.7104 H   0  0  0  0  0  0  0  0  0  0  0  0
   -3.8545   15.5241   -2.8380 H   0  0  0  0  0  0  0  0  0  0  0  0
   -6.6409   12.5704   -1.3703 H   0  0  0  0  0  0  0  0  0  0  0  0
   -5.4217   13.2354   -0.2896 H   0  0  0  0  0  0  0  0  0  0  0  0
   -5.8937   14.1463   -3.1722 H   0  0  0  0  0  0  0  0  0  0  0  0
   -3.1798   15.1535    2.4035 H   0  0  0  0  0  0  0  0  0  0  0  0
    0.3872   13.8285   -1.3874 H   0  0  0  0  0  0  0  0  0  0  0  0
    0.7098   13.8653    0.3317 H   0  0  0  0  0  0  0  0  0  0  0  0
  1  3  1  0  0  0  0
  1  4  2  0  0  0  0
  2  3  2  0  0  0  0
  2 11  1  0  0  0  0
  3  8  1  0  0  0  0
  4  5  1  0  0  0  0
  4 12  1  0  0  0  0
  5 11  1  0  0  0  0
  5 13  2  0  0  0  0
  6  9  1  0  0  0  0
  7 10  1  0  0  0  0
  8 10  1  0  0  0  0
  9 10  1  0  0  0  0
  1 14  1  0  0  0  0
  2 15  1  0  0  0  0
  6 16  1  0  0  0  0
  6 17  1  0  0  0  0
  6 18  1  0  0  0  0
  7 19  1  0  0  0  0
  7 20  1  0  0  0  0
  7 21  1  0  0  0  0
  8 22  1  0  0  0  0
  8 23  1  0  0  0  0
  9 24  1  0  0  0  0
  9 25  1  0  0  0  0
 10 26  1  0  0  0  0
 11 27  1  0  0  0  0
 12 28  1  0  0  0  0
 12 29  1  0  0  0  0
M  END
> <HYBRID receptor title>
5S18(A) > WOY(A-201)

> <HYBRID receptor filename>
experiments/data/docking/5s18.oedu

> <HYBRID Chemgauss4 score>
-6.537919

> <HYBRID receptor title>
5S18(A) > WOY(A-201)

> <HYBRID receptor filename>
experiments/data/docking/5s18.oedu

> <Dock Type>
Hybrid

$$$$
MOL0312
  -OEChem-07032415493D

 17 17  0     0  0  0  0  0  0999 V2000
   -4.6525   14.5101    0.7716 C   0  0  0  0  0  0  0  0  0  0  0  0
   -4.4636   14.2745   -0.5357 C   0  0  0  0  0  0  0  0  0  0  0  0
   -3.0991   14.2986   -1.0860 C   0  0  0  0  0  0  0  0  0  0  0  0
   -2.0593   14.5589   -0.2580 C   0  0  0  0  0  0  0  0  0  0  0  0
   -2.2902   14.8208    1.2041 C   0  0  0  0  0  0  0  0  0  0  0  0
   -5.6349   13.9881   -1.4327 C   0  0  0  0  0  0  0  0  0  0  0  0
   -3.6081   14.7736    1.6122 N   0  0  0  0  0  0  0  0  0  0  0  0
   -2.9318   14.0543   -2.4269 N   0  0  0  0  0  0  0  0  0  0  0  0
   -1.3634   15.0595    1.9755 O   0  0  0  0  0  0  0  0  0  0  0  0
   -6.7876   14.0129   -0.7359 F   0  0  0  0  0  0  0  0  0  0  0  0
   -5.7226   14.9027   -2.4177 F   0  0  0  0  0  0  0  0  0  0  0  0
   -5.5160   12.7725   -2.0010 F   0  0  0  0  0  0  0  0  0  0  0  0
   -0.2754   14.6165   -0.8409 Br  0  0  0  0  0  0  0  0  0  0  0  0
   -5.6305   14.5068    1.2378 H   0  0  0  0  0  0  0  0  0  0  0  0
   -3.8129   14.9444    2.5924 H   0  0  0  0  0  0  0  0  0  0  0  0
   -3.7393   13.8707   -2.9739 H   0  0  0  0  0  0  0  0  0  0  0  0
   -2.0106   14.0713   -2.7948 H   0  0  0  0  0  0  0  0  0  0  0  0
  1  2  2  0  0  0  0
  1  7  1  0  0  0  0
  2  3  1  0  0  0  0
  2  6  1  0  0  0  0
  3  4  2  0  0  0  0
  3  8  1  0  0  0  0
  4  5  1  0  0  0  0
  4 13  1  0  0  0  0
  5  7  1  0  0  0  0
  5  9  2  0  0  0  0
  6 10  1  0  0  0  0
  6 11  1  0  0  0  0
  6 12  1  0  0  0  0
  1 14  1  0  0  0  0
  7 15  1  0  0  0  0
  8 16  1  0  0  0  0
  8 17  1  0  0  0  0
M  END
> <HYBRID receptor title>
5S18(A) > WOY(A-201)

> <HYBRID receptor filename>
experiments/data/docking/5s18.oedu

> <HYBRID Chemgauss4 score>
-6.533198

> <HYBRID receptor title>
5S18(A) > WOY(A-201)

> <HYBRID receptor filename>
experiments/data/docking/5s18.oedu

> <Dock Type>
Hybrid

$$$$
MOL0252
  -OEChem-07032415493D

 29 30  0     1  0  0  0  0  0999 V2000
   -2.8171   14.5875   -1.0063 C   0  0  0  0  0  0  0  0  0  0  0  0
   -4.4124   14.6503    0.8285 C   0  0  0  0  0  0  0  0  0  0  0  0
   -4.1498   14.5178   -0.4753 C   0  0  0  0  0  0  0  0  0  0  0  0
   -1.8203   14.7933   -0.1381 C   0  0  0  0  0  0  0  0  0  0  0  0
   -2.0395   14.9484    1.3255 C   0  0  0  0  0  0  0  0  0  0  0  0
   -6.5201   14.5294   -3.2808 C   0  0  0  0  0  0  0  0  0  0  0  0
   -6.3915   13.6083   -1.0726 C   0  0  0  0  0  0  0  0  0  0  0  0
   -7.0408   13.3598   -2.4418 C   0  0  2  0  0  0  0  0  0  0  0  0
   -5.1084   14.7401   -2.7602 C   0  0  0  0  0  0  0  0  0  0  0  0
   -6.6479   12.0031   -3.0235 C   0  0  0  0  0  0  0  0  0  0  0  0
   -3.3758   14.8617    1.7127 N   0  0  0  0  0  0  0  0  0  0  0  0
   -5.1460   14.3081   -1.3746 N   0  0  3  0  0  0  0  0  0  0  0  0
   -0.5112   14.8774   -0.5318 N   0  0  0  0  0  0  0  0  0  0  0  0
   -1.1153   15.1361    2.1119 O   0  0  0  0  0  0  0  0  0  0  0  0
   -4.7424   16.0362   -2.8847 F   0  0  0  0  0  0  0  0  0  0  0  0
   -4.2253   13.9944   -3.4660 F   0  0  0  0  0  0  0  0  0  0  0  0
   -2.6420   14.4762   -2.0707 H   0  0  0  0  0  0  0  0  0  0  0  0
   -5.4039   14.6033    1.2611 H   0  0  0  0  0  0  0  0  0  0  0  0
   -6.5032   14.2778   -4.3526 H   0  0  0  0  0  0  0  0  0  0  0  0
   -7.1458   15.4234   -3.1505 H   0  0  0  0  0  0  0  0  0  0  0  0
   -7.0515   14.2080   -0.4315 H   0  0  0  0  0  0  0  0  0  0  0  0
   -6.1671   12.6658   -0.5541 H   0  0  0  0  0  0  0  0  0  0  0  0
   -8.1209   13.4179   -2.3538 H   0  0  0  0  0  0  0  0  0  0  0  0
   -5.5627   11.9320   -3.1172 H   0  0  0  0  0  0  0  0  0  0  0  0
   -7.0936   11.8722   -4.0114 H   0  0  0  0  0  0  0  0  0  0  0  0
   -6.9964   11.1974   -2.3734 H   0  0  0  0  0  0  0  0  0  0  0  0
   -3.5978   14.9596    2.6991 H   0  0  0  0  0  0  0  0  0  0  0  0
   -0.3019   14.7813   -1.4989 H   0  0  0  0  0  0  0  0  0  0  0  0
    0.1819   15.0317    0.1636 H   0  0  0  0  0  0  0  0  0  0  0  0
  1  3  1  0  0  0  0
  1  4  2  0  0  0  0
  2  3  2  0  0  0  0
  2 11  1  0  0  0  0
  3 12  1  0  0  0  0
  4  5  1  0  0  0  0
  4 13  1  0  0  0  0
  5 11  1  0  0  0  0
  5 14  2  0  0  0  0
  6  8  1  0  0  0  0
  6  9  1  0  0  0  0
  7  8  1  0  0  0  0
  7 12  1  0  0  0  0
  8 10  1  0  0  0  0
  9 12  1  0  0  0  0
  9 15  1  0  0  0  0
  9 16  1  0  0  0  0
  1 17  1  0  0  0  0
  2 18  1  0  0  0  0
  6 19  1  0  0  0  0
  6 20  1  0  0  0  0
  7 21  1  0  0  0  0
  7 22  1  0  0  0  0
  8 23  1  0  0  0  0
 10 24  1  0  0  0  0
 10 25  1  0  0  0  0
 10 26  1  0  0  0  0
 11 27  1  0  0  0  0
 13 28  1  0  0  0  0
 13 29  1  0  0  0  0
M  END
> <HYBRID receptor title>
5S18(A) > WOY(A-201)

> <HYBRID receptor filename>
experiments/data/docking/5s18.oedu

> <HYBRID Chemgauss4 score>
-6.531695

> <HYBRID receptor title>
5S18(A) > WOY(A-201)

> <HYBRID receptor filename>
experiments/data/docking/5s18.oedu

> <Dock Type>
Hybrid

$$$$
MOL0363
  -OEChem-07032415493D

 24 25  0     0  0  0  0  0  0999 V2000
   -3.6561   14.7111   -0.9759 C   0  0  0  0  0  0  0  0  0  0  0  0
   -4.9883   14.3129    0.9795 C   0  0  0  0  0  0  0  0  0  0  0  0
   -4.9248   14.3832   -0.3572 C   0  0  0  0  0  0  0  0  0  0  0  0
   -2.5428   14.9465   -0.2603 C   0  0  0  0  0  0  0  0  0  0  0  0
   -2.6346   14.8628    1.2404 C   0  0  0  0  0  0  0  0  0  0  0  0
   -7.9754   14.9663   -2.0111 C   0  0  0  0  0  0  0  0  0  0  0  0
   -7.5460   14.4837   -0.6143 C   0  0  0  0  0  0  0  0  0  0  0  0
   -6.4848   15.1851   -2.3229 C   0  0  0  0  0  0  0  0  0  0  0  0
   -6.1641   14.1242   -1.2319 C   0  0  0  0  0  0  0  0  0  0  0  0
   -3.8815   14.5447    1.7534 N   0  0  0  0  0  0  0  0  0  0  0  0
   -1.3221   15.2586   -0.7804 N   0  0  0  0  0  0  0  0  0  0  0  0
   -1.6503   15.0681    1.9485 O   0  0  0  0  0  0  0  0  0  0  0  0
   -6.0722   12.8532   -1.6962 F   0  0  0  0  0  0  0  0  0  0  0  0
   -3.6300   14.7620   -2.0608 H   0  0  0  0  0  0  0  0  0  0  0  0
   -5.8951   14.0747    1.5221 H   0  0  0  0  0  0  0  0  0  0  0  0
   -8.4424   14.1850   -2.6216 H   0  0  0  0  0  0  0  0  0  0  0  0
   -8.6034   15.8603   -2.0339 H   0  0  0  0  0  0  0  0  0  0  0  0
   -7.5282   15.2812    0.1384 H   0  0  0  0  0  0  0  0  0  0  0  0
   -8.1187   13.6398   -0.2197 H   0  0  0  0  0  0  0  0  0  0  0  0
   -6.1806   14.9214   -3.3397 H   0  0  0  0  0  0  0  0  0  0  0  0
   -6.1356   16.2012   -2.1025 H   0  0  0  0  0  0  0  0  0  0  0  0
   -3.9811   14.4793    2.7622 H   0  0  0  0  0  0  0  0  0  0  0  0
   -1.2261   15.3226   -1.7710 H   0  0  0  0  0  0  0  0  0  0  0  0
   -0.5611   15.4139   -0.1554 H   0  0  0  0  0  0  0  0  0  0  0  0
  1  3  1  0  0  0  0
  1  4  2  0  0  0  0
  2  3  2  0  0  0  0
  2 10  1  0  0  0  0
  3  9  1  0  0  0  0
  4  5  1  0  0  0  0
  4 11  1  0  0  0  0
  5 10  1  0  0  0  0
  5 12  2  0  0  0  0
  6  7  1  0  0  0  0
  6  8  1  0  0  0  0
  7  9  1  0  0  0  0
  8  9  1  0  0  0  0
  9 13  1  0  0  0  0
  1 14  1  0  0  0  0
  2 15  1  0  0  0  0
  6 16  1  0  0  0  0
  6 17  1  0  0  0  0
  7 18  1  0  0  0  0
  7 19  1  0  0  0  0
  8 20  1  0  0  0  0
  8 21  1  0  0  0  0
 10 22  1  0  0  0  0
 11 23  1  0  0  0  0
 11 24  1  0  0  0  0
M  END
> <HYBRID receptor title>
5S18(A) > WOY(A-201)

> <HYBRID receptor filename>
experiments/data/docking/5s18.oedu

> <HYBRID Chemgauss4 score>
-6.524912

> <HYBRID receptor title>
5S18(A) > WOY(A-201)

> <HYBRID receptor filename>
experiments/data/docking/5s18.oedu

> <Dock Type>
Hybrid

$$$$
MOL0222
  -OEChem-07032415493D

 22 22  0     1  0  0  0  0  0999 V2000
   -3.5219   14.6414   -1.2075 C   0  0  0  0  0  0  0  0  0  0  0  0
   -4.7535   14.7976    0.8457 C   0  0  0  0  0  0  0  0  0  0  0  0
   -4.7794   14.6703   -0.4880 C   0  0  0  0  0  0  0  0  0  0  0  0
   -2.3328   14.7369   -0.5880 C   0  0  0  0  0  0  0  0  0  0  0  0
   -2.3246   14.8794    0.9110 C   0  0  0  0  0  0  0  0  0  0  0  0
   -7.2516   14.5319   -0.3669 C   0  0  0  0  0  0  0  0  0  0  0  0
   -6.0422   14.5558   -1.2810 C   0  0  2  0  0  0  0  0  0  0  0  0
   -3.5669   14.8988    1.5236 N   0  0  0  0  0  0  0  0  0  0  0  0
   -1.1177   14.7162   -1.2054 N   0  0  0  0  0  0  0  0  0  0  0  0
   -5.9091   13.3384   -2.0319 N   0  0  0  0  0  0  0  0  0  0  0  0
   -1.2682   14.9711    1.5338 O   0  0  0  0  0  0  0  0  0  0  0  0
   -3.5664   14.5380   -2.2883 H   0  0  0  0  0  0  0  0  0  0  0  0
   -5.6470   14.8277    1.4569 H   0  0  0  0  0  0  0  0  0  0  0  0
   -7.1882   13.6970    0.3396 H   0  0  0  0  0  0  0  0  0  0  0  0
   -8.1761   14.4232   -0.9445 H   0  0  0  0  0  0  0  0  0  0  0  0
   -7.3323   15.4552    0.2179 H   0  0  0  0  0  0  0  0  0  0  0  0
   -6.0960   15.3857   -1.9901 H   0  0  0  0  0  0  0  0  0  0  0  0
   -3.6003   14.9936    2.5345 H   0  0  0  0  0  0  0  0  0  0  0  0
   -1.0867   14.6233   -2.1979 H   0  0  0  0  0  0  0  0  0  0  0  0
   -0.2957   14.7946   -0.6469 H   0  0  0  0  0  0  0  0  0  0  0  0
   -5.0762   13.3787   -2.6267 H   0  0  0  0  0  0  0  0  0  0  0  0
   -6.6982   13.2315   -2.6765 H   0  0  0  0  0  0  0  0  0  0  0  0
  1  3  1  0  0  0  0
  1  4  2  0  0  0  0
  2  3  2  0  0  0  0
  2  8  1  0  0  0  0
  3  7  1  0  0  0  0
  4  5  1  0  0  0  0
  4  9  1  0  0  0  0
  5  8  1  0  0  0  0
  5 11  2  0  0  0  0
  6  7  1  0  0  0  0
  7 10  1  0  0  0  0
  1 12  1  0  0  0  0
  2 13  1  0  0  0  0
  6 14  1  0  0  0  0
  6 15  1  0  0  0  0
  6 16  1  0  0  0  0
  7 17  1  0  0  0  0
  8 18  1  0  0  0  0
  9 19  1  0  0  0  0
  9 20  1  0  0  0  0
 10 21  1  0  0  0  0
 10 22  1  0  0  0  0
M  END
> <HYBRID receptor title>
5S18(A) > WOY(A-201)

> <HYBRID receptor filename>
experiments/data/docking/5s18.oedu

> <HYBRID Chemgauss4 score>
-6.521127

> <HYBRID receptor title>
5S18(A) > WOY(A-201)

> <HYBRID receptor filename>
experiments/data/docking/5s18.oedu

> <Dock Type>
Hybrid

$$$$
MOL0106
  -OEChem-07032415493D

 22 22  0     1  0  0  0  0  0999 V2000
   -3.5219   14.6414   -1.2075 C   0  0  0  0  0  0  0  0  0  0  0  0
   -4.7535   14.7976    0.8457 C   0  0  0  0  0  0  0  0  0  0  0  0
   -4.7794   14.6703   -0.4880 C   0  0  0  0  0  0  0  0  0  0  0  0
   -2.3328   14.7369   -0.5880 C   0  0  0  0  0  0  0  0  0  0  0  0
   -2.3246   14.8794    0.9110 C   0  0  0  0  0  0  0  0  0  0  0  0
   -7.2516   14.5319   -0.3669 C   0  0  0  0  0  0  0  0  0  0  0  0
   -6.0422   14.5558   -1.2810 C   0  0  2  0  0  0  0  0  0  0  0  0
   -3.5669   14.8988    1.5236 N   0  0  0  0  0  0  0  0  0  0  0  0
   -1.1177   14.7162   -1.2054 N   0  0  0  0  0  0  0  0  0  0  0  0
   -5.9091   13.3384   -2.0319 N   0  0  0  0  0  0  0  0  0  0  0  0
   -1.2682   14.9711    1.5338 O   0  0  0  0  0  0  0  0  0  0  0  0
   -3.5664   14.5380   -2.2883 H   0  0  0  0  0  0  0  0  0  0  0  0
   -5.6470   14.8277    1.4569 H   0  0  0  0  0  0  0  0  0  0  0  0
   -7.1882   13.6970    0.3396 H   0  0  0  0  0  0  0  0  0  0  0  0
   -8.1761   14.4232   -0.9445 H   0  0  0  0  0  0  0  0  0  0  0  0
   -7.3323   15.4552    0.2179 H   0  0  0  0  0  0  0  0  0  0  0  0
   -6.0960   15.3857   -1.9901 H   0  0  0  0  0  0  0  0  0  0  0  0
   -3.6003   14.9936    2.5345 H   0  0  0  0  0  0  0  0  0  0  0  0
   -1.0867   14.6233   -2.1979 H   0  0  0  0  0  0  0  0  0  0  0  0
   -0.2957   14.7946   -0.6469 H   0  0  0  0  0  0  0  0  0  0  0  0
   -5.0762   13.3787   -2.6267 H   0  0  0  0  0  0  0  0  0  0  0  0
   -6.6982   13.2315   -2.6765 H   0  0  0  0  0  0  0  0  0  0  0  0
  1  3  1  0  0  0  0
  1  4  2  0  0  0  0
  2  3  2  0  0  0  0
  2  8  1  0  0  0  0
  3  7  1  0  0  0  0
  4  5  1  0  0  0  0
  4  9  1  0  0  0  0
  5  8  1  0  0  0  0
  5 11  2  0  0  0  0
  6  7  1  0  0  0  0
  7 10  1  0  0  0  0
  1 12  1  0  0  0  0
  2 13  1  0  0  0  0
  6 14  1  0  0  0  0
  6 15  1  0  0  0  0
  6 16  1  0  0  0  0
  7 17  1  0  0  0  0
  8 18  1  0  0  0  0
  9 19  1  0  0  0  0
  9 20  1  0  0  0  0
 10 21  1  0  0  0  0
 10 22  1  0  0  0  0
M  END
> <HYBRID receptor title>
5S18(A) > WOY(A-201)

> <HYBRID receptor filename>
experiments/data/docking/5s18.oedu

> <HYBRID Chemgauss4 score>
-6.521127

> <HYBRID receptor title>
5S18(A) > WOY(A-201)

> <HYBRID receptor filename>
experiments/data/docking/5s18.oedu

> <Dock Type>
Hybrid

$$$$
MOL0070
  -OEChem-07032415493D

 19 19  0     0  0  0  0  0  0999 V2000
   -2.0630   14.8107   -1.5507 C   0  0  0  0  0  0  0  0  0  0  0  0
   -1.1075   14.8708   -2.2750 C   0  0  0  0  0  0  0  0  0  0  0  0
   -4.5150   14.5772   -1.2585 C   0  0  0  0  0  0  0  0  0  0  0  0
   -3.0604   14.8217    0.6359 C   0  0  0  0  0  0  0  0  0  0  0  0
   -3.1935   14.7397   -0.6937 C   0  0  0  0  0  0  0  0  0  0  0  0
   -5.6197   14.5057   -0.4947 C   0  0  0  0  0  0  0  0  0  0  0  0
   -5.4552   14.5992    0.9999 C   0  0  0  0  0  0  0  0  0  0  0  0
    0.0478   14.9432   -3.1507 C   0  0  0  0  0  0  0  0  0  0  0  0
   -4.1564   14.7535    1.4572 N   0  0  0  0  0  0  0  0  0  0  0  0
   -6.8921   14.3538   -0.9600 N   0  0  0  0  0  0  0  0  0  0  0  0
   -6.4279   14.5404    1.7501 O   0  0  0  0  0  0  0  0  0  0  0  0
    0.5969   16.1779   -3.1226 F   0  0  0  0  0  0  0  0  0  0  0  0
    0.9947   14.0556   -2.7732 F   0  0  0  0  0  0  0  0  0  0  0  0
   -0.2978   14.6681   -4.4280 F   0  0  0  0  0  0  0  0  0  0  0  0
   -4.5991   14.5129   -2.3405 H   0  0  0  0  0  0  0  0  0  0  0  0
   -2.1080   14.9438    1.1383 H   0  0  0  0  0  0  0  0  0  0  0  0
   -4.0074   14.8199    2.4598 H   0  0  0  0  0  0  0  0  0  0  0  0
   -7.0368   14.2884   -1.9445 H   0  0  0  0  0  0  0  0  0  0  0  0
   -7.6402   14.3125   -0.3025 H   0  0  0  0  0  0  0  0  0  0  0  0
  1  2  3  0  0  0  0
  1  5  1  0  0  0  0
  2  8  1  0  0  0  0
  3  5  1  0  0  0  0
  3  6  2  0  0  0  0
  4  5  2  0  0  0  0
  4  9  1  0  0  0  0
  6  7  1  0  0  0  0
  6 10  1  0  0  0  0
  7  9  1  0  0  0  0
  7 11  2  0  0  0  0
  8 12  1  0  0  0  0
  8 13  1  0  0  0  0
  8 14  1  0  0  0  0
  3 15  1  0  0  0  0
  4 16  1  0  0  0  0
  9 17  1  0  0  0  0
 10 18  1  0  0  0  0
 10 19  1  0  0  0  0
M  END
> <HYBRID receptor title>
5S18(A) > WOY(A-201)

> <HYBRID receptor filename>
experiments/data/docking/5s18.oedu

> <HYBRID Chemgauss4 score>
-6.516562

> <HYBRID receptor title>
5S18(A) > WOY(A-201)

> <HYBRID receptor filename>
experiments/data/docking/5s18.oedu

> <Dock Type>
Hybrid

$$$$
MOL0086
  -OEChem-07032415493D

 17 17  0     0  0  0  0  0  0999 V2000
   -3.4081   14.4502   -0.9575 C   0  0  0  0  0  0  0  0  0  0  0  0
   -4.8144   14.4255    0.9863 C   0  0  0  0  0  0  0  0  0  0  0  0
   -4.7097   14.2856   -0.3423 C   0  0  0  0  0  0  0  0  0  0  0  0
   -2.3040   14.7371   -0.2464 C   0  0  0  0  0  0  0  0  0  0  0  0
   -2.4422   14.8905    1.2452 C   0  0  0  0  0  0  0  0  0  0  0  0
   -5.8689   13.9670   -1.2318 C   0  0  0  0  0  0  0  0  0  0  0  0
   -3.7187   14.7181    1.7553 N   0  0  0  0  0  0  0  0  0  0  0  0
   -1.0538   14.9039   -0.7634 N   0  0  0  0  0  0  0  0  0  0  0  0
   -1.4686   15.1527    1.9489 O   0  0  0  0  0  0  0  0  0  0  0  0
   -6.0504   14.9600   -2.1370 F   0  0  0  0  0  0  0  0  0  0  0  0
   -3.3462   14.3328   -2.0360 H   0  0  0  0  0  0  0  0  0  0  0  0
   -5.7491   14.3188    1.5229 H   0  0  0  0  0  0  0  0  0  0  0  0
   -6.7766   13.8718   -0.6389 H   0  0  0  0  0  0  0  0  0  0  0  0
   -5.6797   13.0401   -1.7704 H   0  0  0  0  0  0  0  0  0  0  0  0
   -3.8500   14.8142    2.7580 H   0  0  0  0  0  0  0  0  0  0  0  0
   -0.9267   14.8095   -1.7481 H   0  0  0  0  0  0  0  0  0  0  0  0
   -0.3033   15.1154   -0.1423 H   0  0  0  0  0  0  0  0  0  0  0  0
  1  3  1  0  0  0  0
  1  4  2  0  0  0  0
  2  3  2  0  0  0  0
  2  7  1  0  0  0  0
  3  6  1  0  0  0  0
  4  5  1  0  0  0  0
  4  8  1  0  0  0  0
  5  7  1  0  0  0  0
  5  9  2  0  0  0  0
  6 10  1  0  0  0  0
  1 11  1  0  0  0  0
  2 12  1  0  0  0  0
  6 13  1  0  0  0  0
  6 14  1  0  0  0  0
  7 15  1  0  0  0  0
  8 16  1  0  0  0  0
  8 17  1  0  0  0  0
M  END
> <HYBRID receptor title>
5S18(A) > WOY(A-201)

> <HYBRID receptor filename>
experiments/data/docking/5s18.oedu

> <HYBRID Chemgauss4 score>
-6.509582

> <HYBRID receptor title>
5S18(A) > WOY(A-201)

> <HYBRID receptor filename>
experiments/data/docking/5s18.oedu

> <Dock Type>
Hybrid

$$$$
MOL0069
  -OEChem-07032415493D

 17 17  0     0  0  0  0  0  0999 V2000
   -3.9966   14.8020   -1.1583 C   0  0  0  0  0  0  0  0  0  0  0  0
   -4.9782   14.7276    1.0282 C   0  0  0  0  0  0  0  0  0  0  0  0
   -5.1567   14.6905   -0.2985 C   0  0  0  0  0  0  0  0  0  0  0  0
   -2.7456   14.9408   -0.6820 C   0  0  0  0  0  0  0  0  0  0  0  0
   -2.5655   14.9802    0.8207 C   0  0  0  0  0  0  0  0  0  0  0  0
   -6.4962   14.5385   -0.9460 C   0  0  0  0  0  0  0  0  0  0  0  0
   -3.7266   14.8678    1.5686 N   0  0  0  0  0  0  0  0  0  0  0  0
   -1.6331   15.0475   -1.4662 N   0  0  0  0  0  0  0  0  0  0  0  0
   -6.3866   14.5312   -2.2913 F   0  0  0  0  0  0  0  0  0  0  0  0
   -7.0909   13.3852   -0.5752 F   0  0  0  0  0  0  0  0  0  0  0  0
   -7.3181   15.5535   -0.6050 F   0  0  0  0  0  0  0  0  0  0  0  0
   -1.0956   15.1460    1.6280 S   0  0  0  0  0  0  0  0  0  0  0  0
   -4.1688   14.7692   -2.2310 H   0  0  0  0  0  0  0  0  0  0  0  0
   -5.7907   14.6510    1.7402 H   0  0  0  0  0  0  0  0  0  0  0  0
   -3.6560   14.8886    2.5818 H   0  0  0  0  0  0  0  0  0  0  0  0
   -1.7437   15.0221   -2.4560 H   0  0  0  0  0  0  0  0  0  0  0  0
   -0.7464   15.1473   -1.0241 H   0  0  0  0  0  0  0  0  0  0  0  0
  1  3  1  0  0  0  0
  1  4  2  0  0  0  0
  2  3  2  0  0  0  0
  2  7  1  0  0  0  0
  3  6  1  0  0  0  0
  4  5  1  0  0  0  0
  4  8  1  0  0  0  0
  5  7  1  0  0  0  0
  5 12  2  0  0  0  0
  6  9  1  0  0  0  0
  6 10  1  0  0  0  0
  6 11  1  0  0  0  0
  1 13  1  0  0  0  0
  2 14  1  0  0  0  0
  7 15  1  0  0  0  0
  8 16  1  0  0  0  0
  8 17  1  0  0  0  0
M  END
> <HYBRID receptor title>
5S18(A) > WOY(A-201)

> <HYBRID receptor filename>
experiments/data/docking/5s18.oedu

> <HYBRID Chemgauss4 score>
-6.497123

> <HYBRID receptor title>
5S18(A) > WOY(A-201)

> <HYBRID receptor filename>
experiments/data/docking/5s18.oedu

> <Dock Type>
Hybrid

$$$$
MOL0151
  -OEChem-07032415493D

 18 18  0     0  0  0  0  0  0999 V2000
   -4.2198   14.7785   -1.0682 C   0  0  0  0  0  0  0  0  0  0  0  0
   -5.0884   14.7109    1.1686 C   0  0  0  0  0  0  0  0  0  0  0  0
   -2.9491   14.8713   -0.6415 C   0  0  0  0  0  0  0  0  0  0  0  0
   -5.3370   14.6946   -0.1485 C   0  0  0  0  0  0  0  0  0  0  0  0
   -2.6855   14.8880    0.8371 C   0  0  0  0  0  0  0  0  0  0  0  0
   -1.7724   14.9599   -1.5597 C   0  0  0  0  0  0  0  0  0  0  0  0
   -6.7127   14.5945   -0.7266 C   0  0  0  0  0  0  0  0  0  0  0  0
   -3.8065   14.8041    1.6467 N   0  0  0  0  0  0  0  0  0  0  0  0
   -1.5407   14.9714    1.2767 O   0  0  0  0  0  0  0  0  0  0  0  0
   -2.1620   14.9338   -2.8518 F   0  0  0  0  0  0  0  0  0  0  0  0
   -1.0816   16.1023   -1.3614 F   0  0  0  0  0  0  0  0  0  0  0  0
   -0.9249   13.9276   -1.3641 F   0  0  0  0  0  0  0  0  0  0  0  0
   -6.6735   14.5999   -2.0757 F   0  0  0  0  0  0  0  0  0  0  0  0
   -7.3255   13.4570   -0.3371 F   0  0  0  0  0  0  0  0  0  0  0  0
   -7.4814   15.6317   -0.3324 F   0  0  0  0  0  0  0  0  0  0  0  0
   -4.4430   14.7641   -2.1311 H   0  0  0  0  0  0  0  0  0  0  0  0
   -5.8658   14.6526    1.9204 H   0  0  0  0  0  0  0  0  0  0  0  0
   -3.6820   14.8115    2.6548 H   0  0  0  0  0  0  0  0  0  0  0  0
  1  3  2  0  0  0  0
  1  4  1  0  0  0  0
  2  4  2  0  0  0  0
  2  8  1  0  0  0  0
  3  5  1  0  0  0  0
  3  6  1  0  0  0  0
  4  7  1  0  0  0  0
  5  8  1  0  0  0  0
  5  9  2  0  0  0  0
  6 10  1  0  0  0  0
  6 11  1  0  0  0  0
  6 12  1  0  0  0  0
  7 13  1  0  0  0  0
  7 14  1  0  0  0  0
  7 15  1  0  0  0  0
  1 16  1  0  0  0  0
  2 17  1  0  0  0  0
  8 18  1  0  0  0  0
M  END
> <HYBRID receptor title>
5S18(A) > WOY(A-201)

> <HYBRID receptor filename>
experiments/data/docking/5s18.oedu

> <HYBRID Chemgauss4 score>
-6.495237

> <HYBRID receptor title>
5S18(A) > WOY(A-201)

> <HYBRID receptor filename>
experiments/data/docking/5s18.oedu

> <Dock Type>
Hybrid

$$$$
MOL0207
  -OEChem-07032415493D

 32 32  0     0  0  0  0  0  0999 V2000
   -1.6022   14.7972   -0.9412 C   0  0  0  0  0  0  0  0  0  0  0  0
   -3.5603   14.5072    0.4147 C   0  0  0  0  0  0  0  0  0  0  0  0
   -3.0322   14.6014   -0.8133 C   0  0  0  0  0  0  0  0  0  0  0  0
   -0.7873   14.8874    0.1241 C   0  0  0  0  0  0  0  0  0  0  0  0
   -1.3997   14.7793    1.4954 C   0  0  0  0  0  0  0  0  0  0  0  0
   -4.7225   12.8256   -3.8571 C   0  0  0  0  0  0  0  0  0  0  0  0
   -2.4673   12.4551   -2.8648 C   0  0  0  0  0  0  0  0  0  0  0  0
   -5.2627   15.0552   -1.7880 C   0  0  0  0  0  0  0  0  0  0  0  0
   -3.1867   15.4480   -3.1145 C   0  0  0  0  0  0  0  0  0  0  0  0
   -3.8647   13.0329   -2.5974 C   0  0  0  0  0  0  0  0  0  0  0  0
   -3.8510   14.5141   -2.0823 C   0  0  0  0  0  0  0  0  0  0  0  0
   -2.7720   14.5931    1.5322 N   0  0  0  0  0  0  0  0  0  0  0  0
    0.5624   15.0709    0.0715 N   0  0  0  0  0  0  0  0  0  0  0  0
   -0.7057   14.8542    2.5078 O   0  0  0  0  0  0  0  0  0  0  0  0
   -1.1955   14.8712   -1.9461 H   0  0  0  0  0  0  0  0  0  0  0  0
   -4.6178   14.3609    0.5968 H   0  0  0  0  0  0  0  0  0  0  0  0
   -4.3484   13.4103   -4.7032 H   0  0  0  0  0  0  0  0  0  0  0  0
   -4.7093   11.7720   -4.1571 H   0  0  0  0  0  0  0  0  0  0  0  0
   -5.7686   13.0964   -3.6855 H   0  0  0  0  0  0  0  0  0  0  0  0
   -1.9579   13.0300   -3.6468 H   0  0  0  0  0  0  0  0  0  0  0  0
   -1.8356   12.4855   -1.9719 H   0  0  0  0  0  0  0  0  0  0  0  0
   -2.5175   11.4207   -3.2187 H   0  0  0  0  0  0  0  0  0  0  0  0
   -5.9034   15.0166   -2.6747 H   0  0  0  0  0  0  0  0  0  0  0  0
   -5.7599   14.4948   -0.9890 H   0  0  0  0  0  0  0  0  0  0  0  0
   -5.2236   16.1032   -1.4657 H   0  0  0  0  0  0  0  0  0  0  0  0
   -3.7271   15.4392   -4.0686 H   0  0  0  0  0  0  0  0  0  0  0  0
   -3.1486   16.4831   -2.7594 H   0  0  0  0  0  0  0  0  0  0  0  0
   -2.1521   15.1453   -3.3206 H   0  0  0  0  0  0  0  0  0  0  0  0
   -4.3134   12.4115   -1.8084 H   0  0  0  0  0  0  0  0  0  0  0  0
   -3.2199   14.5157    2.4406 H   0  0  0  0  0  0  0  0  0  0  0  0
    1.0006   15.1469   -0.8212 H   0  0  0  0  0  0  0  0  0  0  0  0
    1.0719   15.1237    0.9267 H   0  0  0  0  0  0  0  0  0  0  0  0
  1  3  1  0  0  0  0
  1  4  2  0  0  0  0
  2  3  2  0  0  0  0
  2 12  1  0  0  0  0
  3 11  1  0  0  0  0
  4  5  1  0  0  0  0
  4 13  1  0  0  0  0
  5 12  1  0  0  0  0
  5 14  2  0  0  0  0
  6 10  1  0  0  0  0
  7 10  1  0  0  0  0
  8 11  1  0  0  0  0
  9 11  1  0  0  0  0
 10 11  1  0  0  0  0
  1 15  1  0  0  0  0
  2 16  1  0  0  0  0
  6 17  1  0  0  0  0
  6 18  1  0  0  0  0
  6 19  1  0  0  0  0
  7 20  1  0  0  0  0
  7 21  1  0  0  0  0
  7 22  1  0  0  0  0
  8 23  1  0  0  0  0
  8 24  1  0  0  0  0
  8 25  1  0  0  0  0
  9 26  1  0  0  0  0
  9 27  1  0  0  0  0
  9 28  1  0  0  0  0
 10 29  1  0  0  0  0
 12 30  1  0  0  0  0
 13 31  1  0  0  0  0
 13 32  1  0  0  0  0
M  END
> <HYBRID receptor title>
5S18(A) > WOY(A-201)

> <HYBRID receptor filename>
experiments/data/docking/5s18.oedu

> <HYBRID Chemgauss4 score>
-6.489636

> <HYBRID receptor title>
5S18(A) > WOY(A-201)

> <HYBRID receptor filename>
experiments/data/docking/5s18.oedu

> <Dock Type>
Hybrid

$$$$
MOL0072
  -OEChem-07032415493D

 15 15  0     0  0  0  0  0  0999 V2000
   -6.4063   14.3843   -0.7787 C   0  0  0  0  0  0  0  0  0  0  0  0
   -3.9312   14.5106   -0.8795 C   0  0  0  0  0  0  0  0  0  0  0  0
   -5.0996   14.7602    1.2030 C   0  0  0  0  0  0  0  0  0  0  0  0
   -5.1603   14.5563   -0.1187 C   0  0  0  0  0  0  0  0  0  0  0  0
   -2.7244   14.6656   -0.3063 C   0  0  0  0  0  0  0  0  0  0  0  0
   -2.6708   14.8945    1.1818 C   0  0  0  0  0  0  0  0  0  0  0  0
   -7.4232   14.2441   -1.3188 N   0  0  0  0  0  0  0  0  0  0  0  0
   -3.8930   14.9244    1.8338 N   0  0  0  0  0  0  0  0  0  0  0  0
   -1.5296   14.6334   -0.9619 N   0  0  0  0  0  0  0  0  0  0  0  0
   -1.5971   15.0429    1.7626 O   0  0  0  0  0  0  0  0  0  0  0  0
   -4.0046   14.3440   -1.9513 H   0  0  0  0  0  0  0  0  0  0  0  0
   -5.9716   14.8080    1.8447 H   0  0  0  0  0  0  0  0  0  0  0  0
   -3.8955   15.0769    2.8380 H   0  0  0  0  0  0  0  0  0  0  0  0
   -1.5287   14.4838   -1.9479 H   0  0  0  0  0  0  0  0  0  0  0  0
   -0.6920   14.7603   -0.4365 H   0  0  0  0  0  0  0  0  0  0  0  0
  1  4  1  0  0  0  0
  1  7  3  0  0  0  0
  2  4  1  0  0  0  0
  2  5  2  0  0  0  0
  3  4  2  0  0  0  0
  3  8  1  0  0  0  0
  5  6  1  0  0  0  0
  5  9  1  0  0  0  0
  6  8  1  0  0  0  0
  6 10  2  0  0  0  0
  2 11  1  0  0  0  0
  3 12  1  0  0  0  0
  8 13  1  0  0  0  0
  9 14  1  0  0  0  0
  9 15  1  0  0  0  0
M  END
> <HYBRID receptor title>
5S18(A) > WOY(A-201)

> <HYBRID receptor filename>
experiments/data/docking/5s18.oedu

> <HYBRID Chemgauss4 score>
-6.482184

> <HYBRID receptor title>
5S18(A) > WOY(A-201)

> <HYBRID receptor filename>
experiments/data/docking/5s18.oedu

> <Dock Type>
Hybrid

$$$$
MOL0114
  -OEChem-07032415493D

 27 28  0     0  0  0  0  0  0999 V2000
   -8.3115   14.8177    1.8869 C   0  0  0  0  0  0  0  0  0  0  0  0
   -7.6495   13.6079    1.6773 C   0  0  0  0  0  0  0  0  0  0  0  0
   -7.6618   16.0228    1.6201 C   0  0  0  0  0  0  0  0  0  0  0  0
   -6.3384   13.6031    1.2009 C   0  0  0  0  0  0  0  0  0  0  0  0
   -6.3507   16.0180    1.1437 C   0  0  0  0  0  0  0  0  0  0  0  0
   -5.6888   14.8083    0.9342 C   0  0  0  0  0  0  0  0  0  0  0  0
   -2.6129   14.7736   -1.2561 C   0  0  0  0  0  0  0  0  0  0  0  0
   -4.3220   14.8038    0.4389 C   0  0  0  0  0  0  0  0  0  0  0  0
   -4.0153   14.7739   -0.8734 C   0  0  0  0  0  0  0  0  0  0  0  0
   -1.6094   14.7985   -0.3638 C   0  0  0  0  0  0  0  0  0  0  0  0
   -1.9665   14.8290    1.0938 C   0  0  0  0  0  0  0  0  0  0  0  0
   -4.9979   14.7422   -2.0092 C   0  0  0  0  0  0  0  0  0  0  0  0
   -3.3190   14.8297    1.3854 N   0  0  0  0  0  0  0  0  0  0  0  0
   -0.2811   14.7986   -0.6695 N   0  0  0  0  0  0  0  0  0  0  0  0
   -1.0942   14.8519    1.9604 O   0  0  0  0  0  0  0  0  0  0  0  0
   -4.3581   14.7190   -3.1948 F   0  0  0  0  0  0  0  0  0  0  0  0
   -5.7832   13.6500   -1.9376 F   0  0  0  0  0  0  0  0  0  0  0  0
   -5.7930   15.8297   -1.9850 F   0  0  0  0  0  0  0  0  0  0  0  0
   -9.3320   14.8212    2.2583 H   0  0  0  0  0  0  0  0  0  0  0  0
   -8.1547   12.6689    1.8845 H   0  0  0  0  0  0  0  0  0  0  0  0
   -8.1760   16.9654    1.7836 H   0  0  0  0  0  0  0  0  0  0  0  0
   -5.8364   12.6518    1.0415 H   0  0  0  0  0  0  0  0  0  0  0  0
   -5.8579   16.9659    0.9406 H   0  0  0  0  0  0  0  0  0  0  0  0
   -2.3885   14.7506   -2.3199 H   0  0  0  0  0  0  0  0  0  0  0  0
   -3.5922   14.8507    2.3643 H   0  0  0  0  0  0  0  0  0  0  0  0
   -0.0108   14.7789   -1.6293 H   0  0  0  0  0  0  0  0  0  0  0  0
    0.3815   14.8186    0.0752 H   0  0  0  0  0  0  0  0  0  0  0  0
  1  2  1  0  0  0  0
  1  3  2  0  0  0  0
  2  4  2  0  0  0  0
  3  5  1  0  0  0  0
  4  6  1  0  0  0  0
  5  6  2  0  0  0  0
  6  8  1  0  0  0  0
  7  9  1  0  0  0  0
  7 10  2  0  0  0  0
  8  9  2  0  0  0  0
  8 13  1  0  0  0  0
  9 12  1  0  0  0  0
 10 11  1  0  0  0  0
 10 14  1  0  0  0  0
 11 13  1  0  0  0  0
 11 15  2  0  0  0  0
 12 16  1  0  0  0  0
 12 17  1  0  0  0  0
 12 18  1  0  0  0  0
  1 19  1  0  0  0  0
  2 20  1  0  0  0  0
  3 21  1  0  0  0  0
  4 22  1  0  0  0  0
  5 23  1  0  0  0  0
  7 24  1  0  0  0  0
 13 25  1  0  0  0  0
 14 26  1  0  0  0  0
 14 27  1  0  0  0  0
M  END
> <HYBRID receptor title>
5S18(A) > WOY(A-201)

> <HYBRID receptor filename>
experiments/data/docking/5s18.oedu

> <HYBRID Chemgauss4 score>
-6.480237

> <HYBRID receptor title>
5S18(A) > WOY(A-201)

> <HYBRID receptor filename>
experiments/data/docking/5s18.oedu

> <Dock Type>
Hybrid

$$$$
MOL0320
  -OEChem-07032415493D

 20 20  0     0  0  0  0  0  0999 V2000
   -3.8974   15.0313   -1.1045 C   0  0  0  0  0  0  0  0  0  0  0  0
   -5.1318   15.0358    0.9529 C   0  0  0  0  0  0  0  0  0  0  0  0
   -5.1563   15.0404   -0.3869 C   0  0  0  0  0  0  0  0  0  0  0  0
   -2.7085   15.0180   -0.4774 C   0  0  0  0  0  0  0  0  0  0  0  0
   -2.7019   15.0132    1.0283 C   0  0  0  0  0  0  0  0  0  0  0  0
   -6.4187   15.0546   -1.1885 C   0  0  0  0  0  0  0  0  0  0  0  0
   -1.3270   15.0157   -2.5236 C   0  0  0  0  0  0  0  0  0  0  0  0
   -3.9455   15.0226    1.6387 N   0  0  0  0  0  0  0  0  0  0  0  0
   -1.4922   15.0088   -1.0927 N   0  0  0  0  0  0  0  0  0  0  0  0
   -1.6458   15.0012    1.6581 O   0  0  0  0  0  0  0  0  0  0  0  0
   -3.9407   15.0356   -2.1903 H   0  0  0  0  0  0  0  0  0  0  0  0
   -6.0264   15.0420    1.5633 H   0  0  0  0  0  0  0  0  0  0  0  0
   -6.7380   14.0327   -1.3887 H   0  0  0  0  0  0  0  0  0  0  0  0
   -6.2500   15.5714   -2.1324 H   0  0  0  0  0  0  0  0  0  0  0  0
   -7.1993   15.5751   -0.6351 H   0  0  0  0  0  0  0  0  0  0  0  0
   -2.3001   15.0261   -3.0230 H   0  0  0  0  0  0  0  0  0  0  0  0
   -0.7635   15.8998   -2.8347 H   0  0  0  0  0  0  0  0  0  0  0  0
   -0.7773   14.1266   -2.8445 H   0  0  0  0  0  0  0  0  0  0  0  0
   -3.9800   15.0197    2.6539 H   0  0  0  0  0  0  0  0  0  0  0  0
   -0.6704   14.9992   -0.5117 H   0  0  0  0  0  0  0  0  0  0  0  0
  1  3  1  0  0  0  0
  1  4  2  0  0  0  0
  2  3  2  0  0  0  0
  2  8  1  0  0  0  0
  3  6  1  0  0  0  0
  4  5  1  0  0  0  0
  4  9  1  0  0  0  0
  5  8  1  0  0  0  0
  5 10  2  0  0  0  0
  7  9  1  0  0  0  0
  1 11  1  0  0  0  0
  2 12  1  0  0  0  0
  6 13  1  0  0  0  0
  6 14  1  0  0  0  0
  6 15  1  0  0  0  0
  7 16  1  0  0  0  0
  7 17  1  0  0  0  0
  7 18  1  0  0  0  0
  8 19  1  0  0  0  0
  9 20  1  0  0  0  0
M  END
> <HYBRID receptor title>
5S18(A) > WOY(A-201)

> <HYBRID receptor filename>
experiments/data/docking/5s18.oedu

> <HYBRID Chemgauss4 score>
-6.478093

> <HYBRID receptor title>
5S18(A) > WOY(A-201)

> <HYBRID receptor filename>
experiments/data/docking/5s18.oedu

> <Dock Type>
Hybrid

$$$$
MOL0073
  -OEChem-07032415493D

 30 31  0     0  0  0  0  0  0999 V2000
   -0.7728   14.8092   -3.4549 C   0  0  0  0  0  0  0  0  0  0  0  0
   -1.1828   12.8376   -2.1198 C   0  0  0  0  0  0  0  0  0  0  0  0
   -0.6353   14.0108   -4.5905 C   0  0  0  0  0  0  0  0  0  0  0  0
   -1.0453   12.0393   -3.2553 C   0  0  0  0  0  0  0  0  0  0  0  0
   -1.0467   14.2224   -2.2196 C   0  0  0  0  0  0  0  0  0  0  0  0
   -0.7714   12.6261   -4.4907 C   0  0  0  0  0  0  0  0  0  0  0  0
   -3.6623   14.6233   -1.2656 C   0  0  0  0  0  0  0  0  0  0  0  0
   -2.7823   15.0152    0.9319 C   0  0  0  0  0  0  0  0  0  0  0  0
   -2.5495   14.9127   -0.3838 C   0  0  0  0  0  0  0  0  0  0  0  0
   -4.9171   14.4546   -0.8138 C   0  0  0  0  0  0  0  0  0  0  0  0
   -5.1584   14.5735    0.6678 C   0  0  0  0  0  0  0  0  0  0  0  0
   -1.1960   15.0812   -0.9973 C   0  0  0  0  0  0  0  0  0  0  0  0
   -0.6235   11.7729   -5.7049 C   0  0  0  0  0  0  0  0  0  0  0  0
   -4.0436   14.8514    1.4418 N   0  0  0  0  0  0  0  0  0  0  0  0
   -6.0046   14.1814   -1.5889 N   0  0  0  0  0  0  0  0  0  0  0  0
   -6.2842   14.4295    1.1408 O   0  0  0  0  0  0  0  0  0  0  0  0
   -0.3565   12.4784   -6.8435 F   0  0  0  0  0  0  0  0  0  0  0  0
   -1.7482   11.0495   -5.9784 F   0  0  0  0  0  0  0  0  0  0  0  0
    0.3861   10.8578   -5.6074 F   0  0  0  0  0  0  0  0  0  0  0  0
   -0.6665   15.8872   -3.5423 H   0  0  0  0  0  0  0  0  0  0  0  0
   -1.3949   12.3716   -1.1612 H   0  0  0  0  0  0  0  0  0  0  0  0
   -0.4222   14.4767   -5.5490 H   0  0  0  0  0  0  0  0  0  0  0  0
   -1.1533   10.9614   -3.1683 H   0  0  0  0  0  0  0  0  0  0  0  0
   -3.4507   14.5442   -2.3285 H   0  0  0  0  0  0  0  0  0  0  0  0
   -2.0071   15.2288    1.6573 H   0  0  0  0  0  0  0  0  0  0  0  0
   -1.0610   16.1366   -1.2492 H   0  0  0  0  0  0  0  0  0  0  0  0
   -0.4432   14.8197   -0.2484 H   0  0  0  0  0  0  0  0  0  0  0  0
   -4.1684   14.9388    2.4461 H   0  0  0  0  0  0  0  0  0  0  0  0
   -5.8802   14.0956   -2.5747 H   0  0  0  0  0  0  0  0  0  0  0  0
   -6.8922   14.0752   -1.1477 H   0  0  0  0  0  0  0  0  0  0  0  0
  1  3  2  0  0  0  0
  1  5  1  0  0  0  0
  2  4  1  0  0  0  0
  2  5  2  0  0  0  0
  3  6  1  0  0  0  0
  4  6  2  0  0  0  0
  5 12  1  0  0  0  0
  6 13  1  0  0  0  0
  7  9  1  0  0  0  0
  7 10  2  0  0  0  0
  8  9  2  0  0  0  0
  8 14  1  0  0  0  0
  9 12  1  0  0  0  0
 10 11  1  0  0  0  0
 10 15  1  0  0  0  0
 11 14  1  0  0  0  0
 11 16  2  0  0  0  0
 13 17  1  0  0  0  0
 13 18  1  0  0  0  0
 13 19  1  0  0  0  0
  1 20  1  0  0  0  0
  2 21  1  0  0  0  0
  3 22  1  0  0  0  0
  4 23  1  0  0  0  0
  7 24  1  0  0  0  0
  8 25  1  0  0  0  0
 12 26  1  0  0  0  0
 12 27  1  0  0  0  0
 14 28  1  0  0  0  0
 15 29  1  0  0  0  0
 15 30  1  0  0  0  0
M  END
> <HYBRID receptor title>
5S18(A) > WOY(A-201)

> <HYBRID receptor filename>
experiments/data/docking/5s18.oedu

> <HYBRID Chemgauss4 score>
-6.472406

> <HYBRID receptor title>
5S18(A) > WOY(A-201)

> <HYBRID receptor filename>
experiments/data/docking/5s18.oedu

> <Dock Type>
Hybrid

$$$$
MOL0082
  -OEChem-07032415493D

 16 16  0     0  0  0  0  0  0999 V2000
   -4.2675   14.4557   -0.6177 C   0  0  0  0  0  0  0  0  0  0  0  0
   -4.5927   14.5827    0.6755 C   0  0  0  0  0  0  0  0  0  0  0  0
   -2.0053   14.6318   -0.2673 C   0  0  0  0  0  0  0  0  0  0  0  0
   -2.2623   14.7866    1.2255 C   0  0  0  0  0  0  0  0  0  0  0  0
   -5.9925   14.5576    1.1961 C   0  0  0  0  0  0  0  0  0  0  0  0
   -2.9897   14.4765   -1.1092 N   0  0  0  0  0  0  0  0  0  0  0  0
   -3.5886   14.7477    1.5915 N   0  0  0  0  0  0  0  0  0  0  0  0
   -0.6912   14.6663   -0.6599 N   0  0  0  0  0  0  0  0  0  0  0  0
   -1.3138   14.9306    1.9830 O   0  0  0  0  0  0  0  0  0  0  0  0
   -6.8818   14.3906    0.1937 F   0  0  0  0  0  0  0  0  0  0  0  0
   -6.1715   13.5487    2.0754 F   0  0  0  0  0  0  0  0  0  0  0  0
   -6.2980   15.7113    1.8281 F   0  0  0  0  0  0  0  0  0  0  0  0
   -5.0420   14.3241   -1.3665 H   0  0  0  0  0  0  0  0  0  0  0  0
   -3.8362   14.8443    2.5718 H   0  0  0  0  0  0  0  0  0  0  0  0
    0.0046   14.7878    0.0382 H   0  0  0  0  0  0  0  0  0  0  0  0
   -0.4869   14.5683   -1.6264 H   0  0  0  0  0  0  0  0  0  0  0  0
  1  2  2  0  0  0  0
  1  6  1  0  0  0  0
  2  5  1  0  0  0  0
  2  7  1  0  0  0  0
  3  4  1  0  0  0  0
  3  6  2  0  0  0  0
  3  8  1  0  0  0  0
  4  7  1  0  0  0  0
  4  9  2  0  0  0  0
  5 10  1  0  0  0  0
  5 11  1  0  0  0  0
  5 12  1  0  0  0  0
  1 13  1  0  0  0  0
  7 14  1  0  0  0  0
  8 15  1  0  0  0  0
  8 16  1  0  0  0  0
M  END
> <HYBRID receptor title>
5S18(A) > WOY(A-201)

> <HYBRID receptor filename>
experiments/data/docking/5s18.oedu

> <HYBRID Chemgauss4 score>
-6.465701

> <HYBRID receptor title>
5S18(A) > WOY(A-201)

> <HYBRID receptor filename>
experiments/data/docking/5s18.oedu

> <Dock Type>
Hybrid

$$$$
MOL0261
  -OEChem-07032415493D

 17 17  0     0  0  0  0  0  0999 V2000
   -4.3526   14.6498    0.5542 C   0  0  0  0  0  0  0  0  0  0  0  0
   -4.0613   14.3711   -0.7253 C   0  0  0  0  0  0  0  0  0  0  0  0
   -2.6550   14.3457   -1.1610 C   0  0  0  0  0  0  0  0  0  0  0  0
   -1.6811   14.6060   -0.2544 C   0  0  0  0  0  0  0  0  0  0  0  0
   -2.0277   14.9167    1.1782 C   0  0  0  0  0  0  0  0  0  0  0  0
   -5.1630   14.0873   -1.7078 C   0  0  0  0  0  0  0  0  0  0  0  0
   -3.3765   14.9126    1.4726 N   0  0  0  0  0  0  0  0  0  0  0  0
   -2.3922   14.0569   -2.4778 N   0  0  0  0  0  0  0  0  0  0  0  0
   -1.1691   15.1566    2.0244 O   0  0  0  0  0  0  0  0  0  0  0  0
   -6.3673   14.1614   -1.1090 F   0  0  0  0  0  0  0  0  0  0  0  0
   -5.1448   14.9741   -2.7212 F   0  0  0  0  0  0  0  0  0  0  0  0
   -5.0307   12.8528   -2.2303 F   0  0  0  0  0  0  0  0  0  0  0  0
    0.3426   14.6026   -0.7381 I   0  0  0  0  0  0  0  0  0  0  0  0
   -5.3661   14.6838    0.9360 H   0  0  0  0  0  0  0  0  0  0  0  0
   -3.6688   15.1157    2.4240 H   0  0  0  0  0  0  0  0  0  0  0  0
   -3.1602   13.8776   -3.0802 H   0  0  0  0  0  0  0  0  0  0  0  0
   -1.4454   14.0394   -2.7734 H   0  0  0  0  0  0  0  0  0  0  0  0
  1  2  2  0  0  0  0
  1  7  1  0  0  0  0
  2  3  1  0  0  0  0
  2  6  1  0  0  0  0
  3  4  2  0  0  0  0
  3  8  1  0  0  0  0
  4  5  1  0  0  0  0
  4 13  1  0  0  0  0
  5  7  1  0  0  0  0
  5  9  2  0  0  0  0
  6 10  1  0  0  0  0
  6 11  1  0  0  0  0
  6 12  1  0  0  0  0
  1 14  1  0  0  0  0
  7 15  1  0  0  0  0
  8 16  1  0  0  0  0
  8 17  1  0  0  0  0
M  END
> <HYBRID receptor title>
5S18(A) > WOY(A-201)

> <HYBRID receptor filename>
experiments/data/docking/5s18.oedu

> <HYBRID Chemgauss4 score>
-6.462398

> <HYBRID receptor title>
5S18(A) > WOY(A-201)

> <HYBRID receptor filename>
experiments/data/docking/5s18.oedu

> <Dock Type>
Hybrid

$$$$
MOL0373
  -OEChem-07032415493D

 24 25  0     0  0  0  0  0  0999 V2000
   -5.3073   12.6027   -4.2722 C   0  0  0  0  0  0  0  0  0  0  0  0
   -5.4263   13.9396   -3.7936 C   0  0  0  0  0  0  0  0  0  0  0  0
   -4.8652   11.7399   -3.2936 C   0  0  0  0  0  0  0  0  0  0  0  0
   -5.0704   14.0473   -2.4667 C   0  0  0  0  0  0  0  0  0  0  0  0
   -2.6255   15.0013   -0.9866 C   0  0  0  0  0  0  0  0  0  0  0  0
   -4.2478   15.2484    0.7637 C   0  0  0  0  0  0  0  0  0  0  0  0
   -3.9960   15.1782   -0.5506 C   0  0  0  0  0  0  0  0  0  0  0  0
   -1.5995   14.9049   -0.1235 C   0  0  0  0  0  0  0  0  0  0  0  0
   -1.9028   14.9862    1.3491 C   0  0  0  0  0  0  0  0  0  0  0  0
   -5.0576   15.2729   -1.5998 C   0  0  0  0  0  0  0  0  0  0  0  0
   -3.2364   15.1557    1.6836 N   0  0  0  0  0  0  0  0  0  0  0  0
   -0.2914   14.7381   -0.4686 N   0  0  0  0  0  0  0  0  0  0  0  0
   -1.0064   14.9045    2.1869 O   0  0  0  0  0  0  0  0  0  0  0  0
   -4.5955   12.5413   -1.8042 S   0  0  0  0  0  0  0  0  0  0  0  0
   -5.5349   12.2888   -5.2827 H   0  0  0  0  0  0  0  0  0  0  0  0
   -5.7554   14.7771   -4.3956 H   0  0  0  0  0  0  0  0  0  0  0  0
   -4.6867   10.6776   -3.3813 H   0  0  0  0  0  0  0  0  0  0  0  0
   -2.4442   14.9473   -2.0567 H   0  0  0  0  0  0  0  0  0  0  0  0
   -5.2424   15.3796    1.1717 H   0  0  0  0  0  0  0  0  0  0  0  0
   -6.0226   15.4032   -1.1026 H   0  0  0  0  0  0  0  0  0  0  0  0
   -4.8699   16.1675   -2.2001 H   0  0  0  0  0  0  0  0  0  0  0  0
   -3.4787   15.2147    2.6683 H   0  0  0  0  0  0  0  0  0  0  0  0
   -0.0551   14.6806   -1.4358 H   0  0  0  0  0  0  0  0  0  0  0  0
    0.3908   14.6786    0.2559 H   0  0  0  0  0  0  0  0  0  0  0  0
  1  2  1  0  0  0  0
  1  3  2  0  0  0  0
  2  4  2  0  0  0  0
  3 14  1  0  0  0  0
  4 10  1  0  0  0  0
  4 14  1  0  0  0  0
  5  7  1  0  0  0  0
  5  8  2  0  0  0  0
  6  7  2  0  0  0  0
  6 11  1  0  0  0  0
  7 10  1  0  0  0  0
  8  9  1  0  0  0  0
  8 12  1  0  0  0  0
  9 11  1  0  0  0  0
  9 13  2  0  0  0  0
  1 15  1  0  0  0  0
  2 16  1  0  0  0  0
  3 17  1  0  0  0  0
  5 18  1  0  0  0  0
  6 19  1  0  0  0  0
 10 20  1  0  0  0  0
 10 21  1  0  0  0  0
 11 22  1  0  0  0  0
 12 23  1  0  0  0  0
 12 24  1  0  0  0  0
M  END
> <HYBRID receptor title>
5S18(A) > WOY(A-201)

> <HYBRID receptor filename>
experiments/data/docking/5s18.oedu

> <HYBRID Chemgauss4 score>
-6.450032

> <HYBRID receptor title>
5S18(A) > WOY(A-201)

> <HYBRID receptor filename>
experiments/data/docking/5s18.oedu

> <Dock Type>
Hybrid

$$$$
MOL0396
  -OEChem-07032415493D

 26 26  0     0  0  0  0  0  0999 V2000
   -1.3481   14.7990   -1.4532 C   0  0  0  0  0  0  0  0  0  0  0  0
    0.9050   13.9764   -1.3935 C   0  0  0  0  0  0  0  0  0  0  0  0
   -0.1951   14.2250   -2.1171 C   0  0  0  0  0  0  0  0  0  0  0  0
   -1.3549   15.0913   -0.1411 C   0  0  0  0  0  0  0  0  0  0  0  0
   -0.1093   14.8046    0.6549 C   0  0  0  0  0  0  0  0  0  0  0  0
   -4.6490   14.8174   -0.0516 C   0  0  0  0  0  0  0  0  0  0  0  0
   -6.3805   13.7570    1.1635 C   0  0  0  0  0  0  0  0  0  0  0  0
   -3.6639   15.9626   -0.0733 C   0  0  0  0  0  0  0  0  0  0  0  0
   -0.3004   13.9410   -3.5817 C   0  0  0  0  0  0  0  0  0  0  0  0
    0.9479   14.2563   -0.0528 N   0  0  0  0  0  0  0  0  0  0  0  0
   -2.4041   15.6311    0.5414 N   0  0  0  0  0  0  0  0  0  0  0  0
   -0.0550   15.0502    1.8585 O   0  0  0  0  0  0  0  0  0  0  0  0
   -4.7182   13.9995   -0.9629 O   0  0  0  0  0  0  0  0  0  0  0  0
   -5.4198   14.8149    1.0704 O   0  0  0  0  0  0  0  0  0  0  0  0
   -1.5155   14.2869   -4.0567 F   0  0  0  0  0  0  0  0  0  0  0  0
    0.6262   14.6289   -4.2813 F   0  0  0  0  0  0  0  0  0  0  0  0
   -0.1169   12.6281   -3.8359 F   0  0  0  0  0  0  0  0  0  0  0  0
   -2.2294   14.9920   -2.0589 H   0  0  0  0  0  0  0  0  0  0  0  0
    1.8076   13.5491   -1.8126 H   0  0  0  0  0  0  0  0  0  0  0  0
   -6.9398   13.8522    2.0978 H   0  0  0  0  0  0  0  0  0  0  0  0
   -7.0707   13.8280    0.3194 H   0  0  0  0  0  0  0  0  0  0  0  0
   -5.8669   12.7934    1.1307 H   0  0  0  0  0  0  0  0  0  0  0  0
   -4.0866   16.8075    0.4750 H   0  0  0  0  0  0  0  0  0  0  0  0
   -3.4615   16.2416   -1.1107 H   0  0  0  0  0  0  0  0  0  0  0  0
    1.8050   14.0495    0.4517 H   0  0  0  0  0  0  0  0  0  0  0  0
   -2.2873   15.8025    1.5263 H   0  0  0  0  0  0  0  0  0  0  0  0
  1  3  1  0  0  0  0
  1  4  2  0  0  0  0
  2  3  2  0  0  0  0
  2 10  1  0  0  0  0
  3  9  1  0  0  0  0
  4  5  1  0  0  0  0
  4 11  1  0  0  0  0
  5 10  1  0  0  0  0
  5 12  2  0  0  0  0
  6  8  1  0  0  0  0
  6 13  2  0  0  0  0
  6 14  1  0  0  0  0
  7 14  1  0  0  0  0
  8 11  1  0  0  0  0
  9 15  1  0  0  0  0
  9 16  1  0  0  0  0
  9 17  1  0  0  0  0
  1 18  1  0  0  0  0
  2 19  1  0  0  0  0
  7 20  1  0  0  0  0
  7 21  1  0  0  0  0
  7 22  1  0  0  0  0
  8 23  1  0  0  0  0
  8 24  1  0  0  0  0
 10 25  1  0  0  0  0
 11 26  1  0  0  0  0
M  END
> <HYBRID receptor title>
5S18(A) > WOY(A-201)

> <HYBRID receptor filename>
experiments/data/docking/5s18.oedu

> <HYBRID Chemgauss4 score>
-6.447124

> <HYBRID receptor title>
5S18(A) > WOY(A-201)

> <HYBRID receptor filename>
experiments/data/docking/5s18.oedu

> <Dock Type>
Hybrid

$$$$
MOL0341
  -OEChem-07032415493D

 25 25  0     1  0  0  0  0  0999 V2000
   -2.0418   14.8038   -0.9291 C   0  0  0  0  0  0  0  0  0  0  0  0
   -3.8777   15.2429    0.6044 C   0  0  0  0  0  0  0  0  0  0  0  0
   -1.2099   14.6825    0.1116 C   0  0  0  0  0  0  0  0  0  0  0  0
   -3.4188   15.0942   -0.6420 C   0  0  0  0  0  0  0  0  0  0  0  0
   -1.6522   14.8341    1.5243 C   0  0  0  0  0  0  0  0  0  0  0  0
   -3.7297   15.4830   -3.0533 C   0  0  0  0  0  0  0  0  0  0  0  0
   -5.6547   14.8365   -1.6401 C   0  0  0  0  0  0  0  0  0  0  0  0
   -5.7689   13.3438   -1.7966 C   0  0  0  0  0  0  0  0  0  0  0  0
   -3.0099   15.1151    1.6681 N   0  0  0  0  0  0  0  0  0  0  0  0
    0.1227   14.4072   -0.0435 N   0  0  0  0  0  0  0  0  0  0  0  0
   -4.2534   15.2139   -1.7243 N   0  0  3  0  0  0  0  0  0  0  0  0
   -0.8783   14.7194    2.4708 O   0  0  0  0  0  0  0  0  0  0  0  0
   -7.0542   12.9382   -1.7149 F   0  0  0  0  0  0  0  0  0  0  0  0
   -5.2747   12.9347   -2.9846 F   0  0  0  0  0  0  0  0  0  0  0  0
   -5.0759   12.7102   -0.8242 F   0  0  0  0  0  0  0  0  0  0  0  0
   -1.7049   14.6905   -1.9538 H   0  0  0  0  0  0  0  0  0  0  0  0
   -4.9080   15.4621    0.8553 H   0  0  0  0  0  0  0  0  0  0  0  0
   -4.5431   15.5438   -3.7821 H   0  0  0  0  0  0  0  0  0  0  0  0
   -3.1819   16.4295   -3.0590 H   0  0  0  0  0  0  0  0  0  0  0  0
   -3.0446   14.6869   -3.3575 H   0  0  0  0  0  0  0  0  0  0  0  0
   -6.0448   15.1600   -0.6712 H   0  0  0  0  0  0  0  0  0  0  0  0
   -6.2034   15.3564   -2.4308 H   0  0  0  0  0  0  0  0  0  0  0  0
   -3.3798   15.2319    2.6069 H   0  0  0  0  0  0  0  0  0  0  0  0
    0.4774   14.2948   -0.9654 H   0  0  0  0  0  0  0  0  0  0  0  0
    0.6867   14.3298    0.7712 H   0  0  0  0  0  0  0  0  0  0  0  0
  1  3  2  0  0  0  0
  1  4  1  0  0  0  0
  2  4  2  0  0  0  0
  2  9  1  0  0  0  0
  3  5  1  0  0  0  0
  3 10  1  0  0  0  0
  4 11  1  0  0  0  0
  5  9  1  0  0  0  0
  5 12  2  0  0  0  0
  6 11  1  0  0  0  0
  7  8  1  0  0  0  0
  7 11  1  0  0  0  0
  8 13  1  0  0  0  0
  8 14  1  0  0  0  0
  8 15  1  0  0  0  0
  1 16  1  0  0  0  0
  2 17  1  0  0  0  0
  6 18  1  0  0  0  0
  6 19  1  0  0  0  0
  6 20  1  0  0  0  0
  7 21  1  0  0  0  0
  7 22  1  0  0  0  0
  9 23  1  0  0  0  0
 10 24  1  0  0  0  0
 10 25  1  0  0  0  0
M  END
> <HYBRID receptor title>
5S18(A) > WOY(A-201)

> <HYBRID receptor filename>
experiments/data/docking/5s18.oedu

> <HYBRID Chemgauss4 score>
-6.446973

> <HYBRID receptor title>
5S18(A) > WOY(A-201)

> <HYBRID receptor filename>
experiments/data/docking/5s18.oedu

> <Dock Type>
Hybrid

$$$$
MOL0257
  -OEChem-07032415493D

 21 21  0     1  0  0  0  0  0999 V2000
   -3.7842   14.5677   -1.2580 C   0  0  0  0  0  0  0  0  0  0  0  0
   -5.0310   14.7917    0.7796 C   0  0  0  0  0  0  0  0  0  0  0  0
   -5.0473   14.6399   -0.5517 C   0  0  0  0  0  0  0  0  0  0  0  0
   -2.5990   14.6468   -0.6287 C   0  0  0  0  0  0  0  0  0  0  0  0
   -2.6015   14.8173    0.8674 C   0  0  0  0  0  0  0  0  0  0  0  0
   -7.5260   14.5781   -0.4563 C   0  0  0  0  0  0  0  0  0  0  0  0
   -6.3050   14.5402   -1.3548 C   0  0  2  0  0  0  0  0  0  0  0  0
   -3.8488   14.8776    1.4672 N   0  0  0  0  0  0  0  0  0  0  0  0
   -1.3790   14.5857   -1.2336 N   0  0  0  0  0  0  0  0  0  0  0  0
   -1.5492   14.8958    1.4987 O   0  0  0  0  0  0  0  0  0  0  0  0
   -6.2767   13.3044   -2.0451 O   0  0  0  0  0  0  0  0  0  0  0  0
   -3.8210   14.4449   -2.3371 H   0  0  0  0  0  0  0  0  0  0  0  0
   -5.9292   14.8544    1.3814 H   0  0  0  0  0  0  0  0  0  0  0  0
   -7.5032   13.7607    0.2729 H   0  0  0  0  0  0  0  0  0  0  0  0
   -7.5871   15.5226    0.0931 H   0  0  0  0  0  0  0  0  0  0  0  0
   -8.4408   14.4535   -1.0452 H   0  0  0  0  0  0  0  0  0  0  0  0
   -6.3328   15.3580   -2.0805 H   0  0  0  0  0  0  0  0  0  0  0  0
   -3.8894   14.9923    2.4757 H   0  0  0  0  0  0  0  0  0  0  0  0
   -1.3409   14.4734   -2.2239 H   0  0  0  0  0  0  0  0  0  0  0  0
   -0.5606   14.6552   -0.6686 H   0  0  0  0  0  0  0  0  0  0  0  0
   -7.0971   13.2485   -2.5639 H   0  0  0  0  0  0  0  0  0  0  0  0
  1  3  1  0  0  0  0
  1  4  2  0  0  0  0
  2  3  2  0  0  0  0
  2  8  1  0  0  0  0
  3  7  1  0  0  0  0
  4  5  1  0  0  0  0
  4  9  1  0  0  0  0
  5  8  1  0  0  0  0
  5 10  2  0  0  0  0
  6  7  1  0  0  0  0
  7 11  1  0  0  0  0
  1 12  1  0  0  0  0
  2 13  1  0  0  0  0
  6 14  1  0  0  0  0
  6 15  1  0  0  0  0
  6 16  1  0  0  0  0
  7 17  1  0  0  0  0
  8 18  1  0  0  0  0
  9 19  1  0  0  0  0
  9 20  1  0  0  0  0
 11 21  1  0  0  0  0
M  END
> <HYBRID receptor title>
5S18(A) > WOY(A-201)

> <HYBRID receptor filename>
experiments/data/docking/5s18.oedu

> <HYBRID Chemgauss4 score>
-6.436056

> <HYBRID receptor title>
5S18(A) > WOY(A-201)

> <HYBRID receptor filename>
experiments/data/docking/5s18.oedu

> <Dock Type>
Hybrid

$$$$
MOL0299
  -OEChem-07032415493D

 21 21  0     1  0  0  0  0  0999 V2000
   -3.7842   14.5677   -1.2580 C   0  0  0  0  0  0  0  0  0  0  0  0
   -5.0310   14.7917    0.7796 C   0  0  0  0  0  0  0  0  0  0  0  0
   -5.0473   14.6399   -0.5517 C   0  0  0  0  0  0  0  0  0  0  0  0
   -2.5990   14.6468   -0.6287 C   0  0  0  0  0  0  0  0  0  0  0  0
   -2.6015   14.8173    0.8674 C   0  0  0  0  0  0  0  0  0  0  0  0
   -7.5260   14.5781   -0.4563 C   0  0  0  0  0  0  0  0  0  0  0  0
   -6.3050   14.5402   -1.3548 C   0  0  2  0  0  0  0  0  0  0  0  0
   -3.8488   14.8776    1.4672 N   0  0  0  0  0  0  0  0  0  0  0  0
   -1.3790   14.5857   -1.2336 N   0  0  0  0  0  0  0  0  0  0  0  0
   -1.5492   14.8958    1.4987 O   0  0  0  0  0  0  0  0  0  0  0  0
   -6.2767   13.3044   -2.0451 O   0  0  0  0  0  0  0  0  0  0  0  0
   -3.8210   14.4449   -2.3371 H   0  0  0  0  0  0  0  0  0  0  0  0
   -5.9292   14.8544    1.3814 H   0  0  0  0  0  0  0  0  0  0  0  0
   -7.5032   13.7607    0.2729 H   0  0  0  0  0  0  0  0  0  0  0  0
   -7.5871   15.5226    0.0931 H   0  0  0  0  0  0  0  0  0  0  0  0
   -8.4408   14.4535   -1.0452 H   0  0  0  0  0  0  0  0  0  0  0  0
   -6.3328   15.3580   -2.0805 H   0  0  0  0  0  0  0  0  0  0  0  0
   -3.8894   14.9923    2.4757 H   0  0  0  0  0  0  0  0  0  0  0  0
   -1.3409   14.4734   -2.2239 H   0  0  0  0  0  0  0  0  0  0  0  0
   -0.5606   14.6552   -0.6686 H   0  0  0  0  0  0  0  0  0  0  0  0
   -7.0971   13.2485   -2.5639 H   0  0  0  0  0  0  0  0  0  0  0  0
  1  3  1  0  0  0  0
  1  4  2  0  0  0  0
  2  3  2  0  0  0  0
  2  8  1  0  0  0  0
  3  7  1  0  0  0  0
  4  5  1  0  0  0  0
  4  9  1  0  0  0  0
  5  8  1  0  0  0  0
  5 10  2  0  0  0  0
  6  7  1  0  0  0  0
  7 11  1  0  0  0  0
  1 12  1  0  0  0  0
  2 13  1  0  0  0  0
  6 14  1  0  0  0  0
  6 15  1  0  0  0  0
  6 16  1  0  0  0  0
  7 17  1  0  0  0  0
  8 18  1  0  0  0  0
  9 19  1  0  0  0  0
  9 20  1  0  0  0  0
 11 21  1  0  0  0  0
M  END
> <HYBRID receptor title>
5S18(A) > WOY(A-201)

> <HYBRID receptor filename>
experiments/data/docking/5s18.oedu

> <HYBRID Chemgauss4 score>
-6.436056

> <HYBRID receptor title>
5S18(A) > WOY(A-201)

> <HYBRID receptor filename>
experiments/data/docking/5s18.oedu

> <Dock Type>
Hybrid

$$$$
MOL0387
  -OEChem-07032415493D

 33 34  0     0  0  0  0  0  0999 V2000
   -5.0044   15.4697   -1.1201 C   0  0  0  0  0  0  0  0  0  0  0  0
   -5.0573   13.6649    0.4854 C   0  0  0  0  0  0  0  0  0  0  0  0
   -5.7141   14.6827   -2.0272 C   0  0  0  0  0  0  0  0  0  0  0  0
   -5.7670   12.8779   -0.4217 C   0  0  0  0  0  0  0  0  0  0  0  0
   -4.6762   14.9606    0.1364 C   0  0  0  0  0  0  0  0  0  0  0  0
   -6.0952   13.3870   -1.6781 C   0  0  0  0  0  0  0  0  0  0  0  0
   -1.8028   14.8353   -0.7247 C   0  0  0  0  0  0  0  0  0  0  0  0
    0.5278   14.3853   -1.0748 C   0  0  0  0  0  0  0  0  0  0  0  0
   -0.6900   14.5520   -1.6085 C   0  0  0  0  0  0  0  0  0  0  0  0
   -1.6591   14.9372    0.6080 C   0  0  0  0  0  0  0  0  0  0  0  0
   -0.2829   14.7465    1.1885 C   0  0  0  0  0  0  0  0  0  0  0  0
   -3.9133   15.8079    1.1138 C   0  0  0  0  0  0  0  0  0  0  0  0
   -6.8531   12.5457   -2.6486 C   0  0  0  0  0  0  0  0  0  0  0  0
   -0.9670   14.4614   -3.0754 C   0  0  0  0  0  0  0  0  0  0  0  0
    0.7261   14.4790    0.2778 N   0  0  0  0  0  0  0  0  0  0  0  0
   -2.6628   15.2011    1.4917 N   0  0  0  0  0  0  0  0  0  0  0  0
   -0.0886   14.8277    2.4000 O   0  0  0  0  0  0  0  0  0  0  0  0
   -7.1050   13.1693   -3.8374 F   0  0  0  0  0  0  0  0  0  0  0  0
   -8.0731   12.1630   -2.1708 F   0  0  0  0  0  0  0  0  0  0  0  0
   -6.2107   11.3874   -2.9825 F   0  0  0  0  0  0  0  0  0  0  0  0
   -2.2747   14.6701   -3.3360 F   0  0  0  0  0  0  0  0  0  0  0  0
   -0.2582   15.3798   -3.7648 F   0  0  0  0  0  0  0  0  0  0  0  0
   -0.6402   13.2433   -3.5567 F   0  0  0  0  0  0  0  0  0  0  0  0
   -4.7129   16.4784   -1.4001 H   0  0  0  0  0  0  0  0  0  0  0  0
   -4.8047   13.2595    1.4616 H   0  0  0  0  0  0  0  0  0  0  0  0
   -5.9658   15.0877   -3.0038 H   0  0  0  0  0  0  0  0  0  0  0  0
   -6.0600   11.8697   -0.1411 H   0  0  0  0  0  0  0  0  0  0  0  0
   -2.7813   14.9664   -1.1788 H   0  0  0  0  0  0  0  0  0  0  0  0
    1.4105   14.1711   -1.6646 H   0  0  0  0  0  0  0  0  0  0  0  0
   -3.6951   16.7912    0.6841 H   0  0  0  0  0  0  0  0  0  0  0  0
   -4.4943   15.9736    2.0270 H   0  0  0  0  0  0  0  0  0  0  0  0
    1.6681   14.3446    0.6334 H   0  0  0  0  0  0  0  0  0  0  0  0
   -2.5176   14.9547    2.4567 H   0  0  0  0  0  0  0  0  0  0  0  0
  1  3  2  0  0  0  0
  1  5  1  0  0  0  0
  2  4  1  0  0  0  0
  2  5  2  0  0  0  0
  3  6  1  0  0  0  0
  4  6  2  0  0  0  0
  5 12  1  0  0  0  0
  6 13  1  0  0  0  0
  7  9  1  0  0  0  0
  7 10  2  0  0  0  0
  8  9  2  0  0  0  0
  8 15  1  0  0  0  0
  9 14  1  0  0  0  0
 10 11  1  0  0  0  0
 10 16  1  0  0  0  0
 11 15  1  0  0  0  0
 11 17  2  0  0  0  0
 12 16  1  0  0  0  0
 13 18  1  0  0  0  0
 13 19  1  0  0  0  0
 13 20  1  0  0  0  0
 14 21  1  0  0  0  0
 14 22  1  0  0  0  0
 14 23  1  0  0  0  0
  1 24  1  0  0  0  0
  2 25  1  0  0  0  0
  3 26  1  0  0  0  0
  4 27  1  0  0  0  0
  7 28  1  0  0  0  0
  8 29  1  0  0  0  0
 12 30  1  0  0  0  0
 12 31  1  0  0  0  0
 15 32  1  0  0  0  0
 16 33  1  0  0  0  0
M  END
> <HYBRID receptor title>
5S18(A) > WOY(A-201)

> <HYBRID receptor filename>
experiments/data/docking/5s18.oedu

> <HYBRID Chemgauss4 score>
-6.435521

> <HYBRID receptor title>
5S18(A) > WOY(A-201)

> <HYBRID receptor filename>
experiments/data/docking/5s18.oedu

> <Dock Type>
Hybrid

$$$$
MOL0035
  -OEChem-07032415493D

 16 16  0     0  0  0  0  0  0999 V2000
   -2.5110   14.6487   -1.0596 C   0  0  0  0  0  0  0  0  0  0  0  0
   -4.2763   14.7465    0.5971 C   0  0  0  0  0  0  0  0  0  0  0  0
   -1.5428   14.6431   -0.1249 C   0  0  0  0  0  0  0  0  0  0  0  0
   -3.8903   14.7018   -0.6775 C   0  0  0  0  0  0  0  0  0  0  0  0
   -1.9537   14.6932    1.3298 C   0  0  0  0  0  0  0  0  0  0  0  0
   -3.3194   14.7426    1.5821 N   0  0  0  0  0  0  0  0  0  0  0  0
   -0.2040   14.5958   -0.3771 N   0  0  0  0  0  0  0  0  0  0  0  0
   -4.9200   14.7077   -1.6532 N   0  3  0  0  0  0  0  0  0  0  0  0
   -4.5774   14.6650   -2.8447 O   0  5  0  0  0  0  0  0  0  0  0  0
   -1.1099   14.6899    2.2249 O   0  0  0  0  0  0  0  0  0  0  0  0
   -6.0910   14.7558   -1.2470 O   0  0  0  0  0  0  0  0  0  0  0  0
   -2.2614   14.6140   -2.1158 H   0  0  0  0  0  0  0  0  0  0  0  0
   -5.3041   14.7871    0.9364 H   0  0  0  0  0  0  0  0  0  0  0  0
   -3.6272   14.7779    2.5495 H   0  0  0  0  0  0  0  0  0  0  0  0
    0.1034   14.5622   -1.3253 H   0  0  0  0  0  0  0  0  0  0  0  0
    0.4284   14.5963    0.3934 H   0  0  0  0  0  0  0  0  0  0  0  0
  1  3  2  0  0  0  0
  1  4  1  0  0  0  0
  2  4  2  0  0  0  0
  2  6  1  0  0  0  0
  3  5  1  0  0  0  0
  3  7  1  0  0  0  0
  4  8  1  0  0  0  0
  5  6  1  0  0  0  0
  5 10  2  0  0  0  0
  8  9  1  0  0  0  0
  8 11  2  0  0  0  0
  1 12  1  0  0  0  0
  2 13  1  0  0  0  0
  6 14  1  0  0  0  0
  7 15  1  0  0  0  0
  7 16  1  0  0  0  0
M  CHG  2   8   1   9  -1
M  END
> <HYBRID receptor title>
5S18(A) > WOY(A-201)

> <HYBRID receptor filename>
experiments/data/docking/5s18.oedu

> <HYBRID Chemgauss4 score>
-6.432624

> <HYBRID receptor title>
5S18(A) > WOY(A-201)

> <HYBRID receptor filename>
experiments/data/docking/5s18.oedu

> <Dock Type>
Hybrid

$$$$
MOL0129
  -OEChem-07032415493D

 24 24  0     0  0  0  0  0  0999 V2000
   -3.4153   15.0194   -0.9523 C   0  0  0  0  0  0  0  0  0  0  0  0
   -4.9800   15.3298    0.8418 C   0  0  0  0  0  0  0  0  0  0  0  0
   -2.3702   14.8899   -0.1154 C   0  0  0  0  0  0  0  0  0  0  0  0
   -4.7650   15.2460   -0.4780 C   0  0  0  0  0  0  0  0  0  0  0  0
   -2.6296   14.9866    1.3645 C   0  0  0  0  0  0  0  0  0  0  0  0
   -7.4083   13.2882   -0.5686 C   0  0  0  0  0  0  0  0  0  0  0  0
   -7.2884   13.4513   -3.0790 C   0  0  0  0  0  0  0  0  0  0  0  0
   -6.5463   13.6712   -1.7659 C   0  0  0  0  0  0  0  0  0  0  0  0
   -3.9464   15.2039    1.7340 N   0  0  0  0  0  0  0  0  0  0  0  0
   -1.0784   14.6755   -0.4950 N   0  0  0  0  0  0  0  0  0  0  0  0
   -1.7139   14.8763    2.1779 O   0  0  0  0  0  0  0  0  0  0  0  0
   -6.0493   15.4011   -1.6301 S   0  0  0  0  0  0  0  0  0  0  0  0
   -3.2532   14.9532   -2.0253 H   0  0  0  0  0  0  0  0  0  0  0  0
   -5.9536   15.4975    1.2872 H   0  0  0  0  0  0  0  0  0  0  0  0
   -8.3325   13.8764   -0.5376 H   0  0  0  0  0  0  0  0  0  0  0  0
   -6.8688   13.4793    0.3657 H   0  0  0  0  0  0  0  0  0  0  0  0
   -7.6770   12.2255   -0.5820 H   0  0  0  0  0  0  0  0  0  0  0  0
   -8.2047   14.0512   -3.1032 H   0  0  0  0  0  0  0  0  0  0  0  0
   -6.6821   13.7418   -3.9445 H   0  0  0  0  0  0  0  0  0  0  0  0
   -7.5825   12.4024   -3.2008 H   0  0  0  0  0  0  0  0  0  0  0  0
   -5.6350   13.0637   -1.7619 H   0  0  0  0  0  0  0  0  0  0  0  0
   -4.1697   15.2763    2.7223 H   0  0  0  0  0  0  0  0  0  0  0  0
   -0.8710   14.6060   -1.4679 H   0  0  0  0  0  0  0  0  0  0  0  0
   -0.3795   14.5946    0.2111 H   0  0  0  0  0  0  0  0  0  0  0  0
  1  3  2  0  0  0  0
  1  4  1  0  0  0  0
  2  4  2  0  0  0  0
  2  9  1  0  0  0  0
  3  5  1  0  0  0  0
  3 10  1  0  0  0  0
  4 12  1  0  0  0  0
  5  9  1  0  0  0  0
  5 11  2  0  0  0  0
  6  8  1  0  0  0  0
  7  8  1  0  0  0  0
  8 12  1  0  0  0  0
  1 13  1  0  0  0  0
  2 14  1  0  0  0  0
  6 15  1  0  0  0  0
  6 16  1  0  0  0  0
  6 17  1  0  0  0  0
  7 18  1  0  0  0  0
  7 19  1  0  0  0  0
  7 20  1  0  0  0  0
  8 21  1  0  0  0  0
  9 22  1  0  0  0  0
 10 23  1  0  0  0  0
 10 24  1  0  0  0  0
M  END
> <HYBRID receptor title>
5S18(A) > WOY(A-201)

> <HYBRID receptor filename>
experiments/data/docking/5s18.oedu

> <HYBRID Chemgauss4 score>
-6.410503

> <HYBRID receptor title>
5S18(A) > WOY(A-201)

> <HYBRID receptor filename>
experiments/data/docking/5s18.oedu

> <Dock Type>
Hybrid

$$$$
MOL0076
  -OEChem-07032415493D

 18 18  0     0  0  0  0  0  0999 V2000
   -3.4049   14.5737   -1.1971 C   0  0  0  0  0  0  0  0  0  0  0  0
   -4.9026   14.7878    0.6651 C   0  0  0  0  0  0  0  0  0  0  0  0
   -4.7482   14.6331   -0.6570 C   0  0  0  0  0  0  0  0  0  0  0  0
   -2.3101   14.6674   -0.4228 C   0  0  0  0  0  0  0  0  0  0  0  0
   -2.5044   14.8410    1.0603 C   0  0  0  0  0  0  0  0  0  0  0  0
   -5.8926   14.5177   -1.6129 C   0  0  0  0  0  0  0  0  0  0  0  0
   -3.8183   14.8885    1.4968 N   0  0  0  0  0  0  0  0  0  0  0  0
   -1.0226   14.6188   -0.8678 N   0  0  0  0  0  0  0  0  0  0  0  0
   -1.5416   14.9326    1.8198 O   0  0  0  0  0  0  0  0  0  0  0  0
   -6.0376   13.1687   -2.0171 O   0  0  0  0  0  0  0  0  0  0  0  0
   -3.3031   14.4482   -2.2718 H   0  0  0  0  0  0  0  0  0  0  0  0
   -5.8706   14.8417    1.1477 H   0  0  0  0  0  0  0  0  0  0  0  0
   -5.7193   15.1434   -2.4892 H   0  0  0  0  0  0  0  0  0  0  0  0
   -6.8131   14.8415   -1.1262 H   0  0  0  0  0  0  0  0  0  0  0  0
   -3.9878   15.0047    2.4916 H   0  0  0  0  0  0  0  0  0  0  0  0
   -0.8579   14.5049   -1.8448 H   0  0  0  0  0  0  0  0  0  0  0  0
   -0.2834   14.6986   -0.2037 H   0  0  0  0  0  0  0  0  0  0  0  0
   -6.7878   13.1348   -2.6349 H   0  0  0  0  0  0  0  0  0  0  0  0
  1  3  1  0  0  0  0
  1  4  2  0  0  0  0
  2  3  2  0  0  0  0
  2  7  1  0  0  0  0
  3  6  1  0  0  0  0
  4  5  1  0  0  0  0
  4  8  1  0  0  0  0
  5  7  1  0  0  0  0
  5  9  2  0  0  0  0
  6 10  1  0  0  0  0
  1 11  1  0  0  0  0
  2 12  1  0  0  0  0
  6 13  1  0  0  0  0
  6 14  1  0  0  0  0
  7 15  1  0  0  0  0
  8 16  1  0  0  0  0
  8 17  1  0  0  0  0
 10 18  1  0  0  0  0
M  END
> <HYBRID receptor title>
5S18(A) > WOY(A-201)

> <HYBRID receptor filename>
experiments/data/docking/5s18.oedu

> <HYBRID Chemgauss4 score>
-6.409453

> <HYBRID receptor title>
5S18(A) > WOY(A-201)

> <HYBRID receptor filename>
experiments/data/docking/5s18.oedu

> <Dock Type>
Hybrid

$$$$
MOL0233
  -OEChem-07032415493D

 23 24  0     0  0  0  0  0  0999 V2000
   -2.0268   14.7239   -1.0896 C   0  0  0  0  0  0  0  0  0  0  0  0
   -3.7382   15.1109    0.5468 C   0  0  0  0  0  0  0  0  0  0  0  0
   -3.4105   14.9828   -0.7462 C   0  0  0  0  0  0  0  0  0  0  0  0
   -1.0616   14.6073   -0.1613 C   0  0  0  0  0  0  0  0  0  0  0  0
   -1.4497   14.7545    1.2862 C   0  0  0  0  0  0  0  0  0  0  0  0
   -5.6214   13.2320   -2.2332 C   0  0  0  0  0  0  0  0  0  0  0  0
   -6.5358   14.3915   -1.9456 C   0  0  0  0  0  0  0  0  0  0  0  0
   -4.3981   15.0928   -1.8605 C   0  0  0  0  0  0  0  0  0  0  0  0
   -2.7909   15.0007    1.5308 N   0  0  0  0  0  0  0  0  0  0  0  0
    0.2549   14.3646   -0.4182 N   0  0  0  0  0  0  0  0  0  0  0  0
   -0.6115   14.6581    2.1807 O   0  0  0  0  0  0  0  0  0  0  0  0
   -4.3876   13.8619   -2.5792 O   0  0  0  0  0  0  0  0  0  0  0  0
   -5.6823   15.3318   -1.2948 O   0  0  0  0  0  0  0  0  0  0  0  0
   -1.7835   14.6240   -2.1440 H   0  0  0  0  0  0  0  0  0  0  0  0
   -4.7478   15.3049    0.8873 H   0  0  0  0  0  0  0  0  0  0  0  0
   -5.4525   12.6212   -1.3397 H   0  0  0  0  0  0  0  0  0  0  0  0
   -5.9725   12.5928   -3.0470 H   0  0  0  0  0  0  0  0  0  0  0  0
   -6.9051   14.8508   -2.8690 H   0  0  0  0  0  0  0  0  0  0  0  0
   -7.3835   14.1292   -1.3078 H   0  0  0  0  0  0  0  0  0  0  0  0
   -4.1240   15.8976   -2.5175 H   0  0  0  0  0  0  0  0  0  0  0  0
   -3.0895   15.1057    2.4960 H   0  0  0  0  0  0  0  0  0  0  0  0
    0.5465   14.2621   -1.3663 H   0  0  0  0  0  0  0  0  0  0  0  0
    0.8876   14.2969    0.3492 H   0  0  0  0  0  0  0  0  0  0  0  0
  1  3  1  0  0  0  0
  1  4  2  0  0  0  0
  2  3  2  0  0  0  0
  2  9  1  0  0  0  0
  3  8  1  0  0  0  0
  4  5  1  0  0  0  0
  4 10  1  0  0  0  0
  5  9  1  0  0  0  0
  5 11  2  0  0  0  0
  6  7  1  0  0  0  0
  6 12  1  0  0  0  0
  7 13  1  0  0  0  0
  8 12  1  0  0  0  0
  8 13  1  0  0  0  0
  1 14  1  0  0  0  0
  2 15  1  0  0  0  0
  6 16  1  0  0  0  0
  6 17  1  0  0  0  0
  7 18  1  0  0  0  0
  7 19  1  0  0  0  0
  8 20  1  0  0  0  0
  9 21  1  0  0  0  0
 10 22  1  0  0  0  0
 10 23  1  0  0  0  0
M  END
> <HYBRID receptor title>
5S18(A) > WOY(A-201)

> <HYBRID receptor filename>
experiments/data/docking/5s18.oedu

> <HYBRID Chemgauss4 score>
-6.396823

> <HYBRID receptor title>
5S18(A) > WOY(A-201)

> <HYBRID receptor filename>
experiments/data/docking/5s18.oedu

> <Dock Type>
Hybrid

$$$$
MOL0146
  -OEChem-07032415493D

 28 28  0     1  0  0  0  0  0999 V2000
   -1.1019   14.9320   -1.6674 C   0  0  0  0  0  0  0  0  0  0  0  0
    1.2901   14.9098   -1.4809 C   0  0  0  0  0  0  0  0  0  0  0  0
    0.2128   14.9806   -2.2748 C   0  0  0  0  0  0  0  0  0  0  0  0
   -1.2807   14.8192   -0.3399 C   0  0  0  0  0  0  0  0  0  0  0  0
   -0.0578   14.7409    0.5353 C   0  0  0  0  0  0  0  0  0  0  0  0
   -5.0217   13.5464    1.3884 C   0  0  0  0  0  0  0  0  0  0  0  0
   -3.7488   14.8307   -0.4006 C   0  0  0  0  0  0  0  0  0  0  0  0
   -4.9556   14.8127    0.5403 C   0  0  2  0  0  0  0  0  0  0  0  0
    0.2920   15.1077   -3.7628 C   0  0  0  0  0  0  0  0  0  0  0  0
    1.1607   14.7939   -0.1217 N   0  0  0  0  0  0  0  0  0  0  0  0
   -4.9805   15.9850    1.3823 N   0  0  0  0  0  0  0  0  0  0  0  0
   -2.4874   14.7684    0.2920 N   0  0  0  0  0  0  0  0  0  0  0  0
   -0.1573   14.6369    1.7565 O   0  0  0  0  0  0  0  0  0  0  0  0
   -0.9401   15.1578   -4.3116 F   0  0  0  0  0  0  0  0  0  0  0  0
    0.9493   16.2297   -4.1238 F   0  0  0  0  0  0  0  0  0  0  0  0
    0.9426   14.0570   -4.3058 F   0  0  0  0  0  0  0  0  0  0  0  0
   -1.9613   14.9906   -2.3299 H   0  0  0  0  0  0  0  0  0  0  0  0
    2.3061   14.9391   -1.8546 H   0  0  0  0  0  0  0  0  0  0  0  0
   -4.1290   13.4581    2.0167 H   0  0  0  0  0  0  0  0  0  0  0  0
   -5.0699   12.6454    0.7674 H   0  0  0  0  0  0  0  0  0  0  0  0
   -5.8974   13.5601    2.0449 H   0  0  0  0  0  0  0  0  0  0  0  0
   -3.7837   13.9807   -1.0904 H   0  0  0  0  0  0  0  0  0  0  0  0
   -3.7390   15.7501   -0.9965 H   0  0  0  0  0  0  0  0  0  0  0  0
   -5.8631   14.8648   -0.0719 H   0  0  0  0  0  0  0  0  0  0  0  0
    2.0077   14.7438    0.4368 H   0  0  0  0  0  0  0  0  0  0  0  0
   -5.8355   15.9921    1.9419 H   0  0  0  0  0  0  0  0  0  0  0  0
   -5.0208   16.8271    0.8043 H   0  0  0  0  0  0  0  0  0  0  0  0
   -2.4906   14.6803    1.2947 H   0  0  0  0  0  0  0  0  0  0  0  0
  1  3  1  0  0  0  0
  1  4  2  0  0  0  0
  2  3  2  0  0  0  0
  2 10  1  0  0  0  0
  3  9  1  0  0  0  0
  4  5  1  0  0  0  0
  4 12  1  0  0  0  0
  5 10  1  0  0  0  0
  5 13  2  0  0  0  0
  6  8  1  0  0  0  0
  7  8  1  0  0  0  0
  7 12  1  0  0  0  0
  8 11  1  0  0  0  0
  9 14  1  0  0  0  0
  9 15  1  0  0  0  0
  9 16  1  0  0  0  0
  1 17  1  0  0  0  0
  2 18  1  0  0  0  0
  6 19  1  0  0  0  0
  6 20  1  0  0  0  0
  6 21  1  0  0  0  0
  7 22  1  0  0  0  0
  7 23  1  0  0  0  0
  8 24  1  0  0  0  0
 10 25  1  0  0  0  0
 11 26  1  0  0  0  0
 11 27  1  0  0  0  0
 12 28  1  0  0  0  0
M  END
> <HYBRID receptor title>
5S18(A) > WOY(A-201)

> <HYBRID receptor filename>
experiments/data/docking/5s18.oedu

> <HYBRID Chemgauss4 score>
-6.394998

> <HYBRID receptor title>
5S18(A) > WOY(A-201)

> <HYBRID receptor filename>
experiments/data/docking/5s18.oedu

> <Dock Type>
Hybrid

$$$$
MOL0005
  -OEChem-07032415493D

 23 23  0     0  0  0  0  0  0999 V2000
   -4.3228   14.6928   -1.0530 C   0  0  0  0  0  0  0  0  0  0  0  0
   -5.2493   14.6585    1.1599 C   0  0  0  0  0  0  0  0  0  0  0  0
   -5.4636   14.6224   -0.1624 C   0  0  0  0  0  0  0  0  0  0  0  0
   -3.0600   14.7924   -0.6030 C   0  0  0  0  0  0  0  0  0  0  0  0
   -2.8399   14.8316    0.8861 C   0  0  0  0  0  0  0  0  0  0  0  0
   -7.1346   15.7368   -1.6342 C   0  0  0  0  0  0  0  0  0  0  0  0
   -6.9358   13.2309   -1.5967 C   0  0  0  0  0  0  0  0  0  0  0  0
   -6.8237   14.5129   -0.7746 C   0  0  0  0  0  0  0  0  0  0  0  0
   -3.9809   14.7597    1.6684 N   0  0  0  0  0  0  0  0  0  0  0  0
   -1.9466   14.8623   -1.3862 N   0  0  0  0  0  0  0  0  0  0  0  0
   -1.7079   14.9220    1.3579 O   0  0  0  0  0  0  0  0  0  0  0  0
   -4.5197   14.6623   -2.1212 H   0  0  0  0  0  0  0  0  0  0  0  0
   -6.0459   14.6111    1.8922 H   0  0  0  0  0  0  0  0  0  0  0  0
   -6.4233   15.8243   -2.4637 H   0  0  0  0  0  0  0  0  0  0  0  0
   -7.0687   16.6551   -1.0412 H   0  0  0  0  0  0  0  0  0  0  0  0
   -8.1434   15.6844   -2.0607 H   0  0  0  0  0  0  0  0  0  0  0  0
   -6.2154   13.2294   -2.4221 H   0  0  0  0  0  0  0  0  0  0  0  0
   -6.7320   12.3524   -0.9755 H   0  0  0  0  0  0  0  0  0  0  0  0
   -7.9378   13.1152   -2.0252 H   0  0  0  0  0  0  0  0  0  0  0  0
   -7.5604   14.4710    0.0374 H   0  0  0  0  0  0  0  0  0  0  0  0
   -3.8709   14.7833    2.6780 H   0  0  0  0  0  0  0  0  0  0  0  0
   -2.0564   14.8393   -2.3772 H   0  0  0  0  0  0  0  0  0  0  0  0
   -1.0553   14.9345   -0.9456 H   0  0  0  0  0  0  0  0  0  0  0  0
  1  3  1  0  0  0  0
  1  4  2  0  0  0  0
  2  3  2  0  0  0  0
  2  9  1  0  0  0  0
  3  8  1  0  0  0  0
  4  5  1  0  0  0  0
  4 10  1  0  0  0  0
  5  9  1  0  0  0  0
  5 11  2  0  0  0  0
  6  8  1  0  0  0  0
  7  8  1  0  0  0  0
  1 12  1  0  0  0  0
  2 13  1  0  0  0  0
  6 14  1  0  0  0  0
  6 15  1  0  0  0  0
  6 16  1  0  0  0  0
  7 17  1  0  0  0  0
  7 18  1  0  0  0  0
  7 19  1  0  0  0  0
  8 20  1  0  0  0  0
  9 21  1  0  0  0  0
 10 22  1  0  0  0  0
 10 23  1  0  0  0  0
M  END
> <HYBRID receptor title>
5S18(A) > WOY(A-201)

> <HYBRID receptor filename>
experiments/data/docking/5s18.oedu

> <HYBRID Chemgauss4 score>
-6.385250

> <HYBRID receptor title>
5S18(A) > WOY(A-201)

> <HYBRID receptor filename>
experiments/data/docking/5s18.oedu

> <Dock Type>
Hybrid

$$$$
MOL0241
  -OEChem-07032415493D

 19 19  0     0  0  0  0  0  0999 V2000
   -3.6041   14.9883    0.6235 C   0  0  0  0  0  0  0  0  0  0  0  0
   -3.1878   14.7371   -0.6250 C   0  0  0  0  0  0  0  0  0  0  0  0
   -0.9749   14.5408    0.0017 C   0  0  0  0  0  0  0  0  0  0  0  0
   -1.3643   14.8191    1.4466 C   0  0  0  0  0  0  0  0  0  0  0  0
    0.8940   14.0548   -1.5366 C   0  0  0  0  0  0  0  0  0  0  0  0
   -4.1496   14.6847   -1.7740 C   0  0  0  0  0  0  0  0  0  0  0  0
   -1.8702   14.5114   -0.9469 N   0  0  0  0  0  0  0  0  0  0  0  0
   -2.7080   15.0297    1.6487 N   0  0  0  0  0  0  0  0  0  0  0  0
    0.3598   14.3268   -0.2321 N   0  0  0  0  0  0  0  0  0  0  0  0
   -0.4964   14.8389    2.3070 O   0  0  0  0  0  0  0  0  0  0  0  0
   -5.4105   14.9177   -1.3571 F   0  0  0  0  0  0  0  0  0  0  0  0
   -3.8433   15.6095   -2.7060 F   0  0  0  0  0  0  0  0  0  0  0  0
   -4.1253   13.4741   -2.3674 F   0  0  0  0  0  0  0  0  0  0  0  0
   -4.6385   15.1674    0.8885 H   0  0  0  0  0  0  0  0  0  0  0  0
    0.9060   12.9783   -1.7304 H   0  0  0  0  0  0  0  0  0  0  0  0
    0.2856   14.5426   -2.3033 H   0  0  0  0  0  0  0  0  0  0  0  0
    1.9157   14.4367   -1.6133 H   0  0  0  0  0  0  0  0  0  0  0  0
   -3.0417   15.2214    2.5883 H   0  0  0  0  0  0  0  0  0  0  0  0
    0.9794   14.3679    0.5549 H   0  0  0  0  0  0  0  0  0  0  0  0
  1  2  2  0  0  0  0
  1  8  1  0  0  0  0
  2  6  1  0  0  0  0
  2  7  1  0  0  0  0
  3  4  1  0  0  0  0
  3  7  2  0  0  0  0
  3  9  1  0  0  0  0
  4  8  1  0  0  0  0
  4 10  2  0  0  0  0
  5  9  1  0  0  0  0
  6 11  1  0  0  0  0
  6 12  1  0  0  0  0
  6 13  1  0  0  0  0
  1 14  1  0  0  0  0
  5 15  1  0  0  0  0
  5 16  1  0  0  0  0
  5 17  1  0  0  0  0
  8 18  1  0  0  0  0
  9 19  1  0  0  0  0
M  END
> <HYBRID receptor title>
5S18(A) > WOY(A-201)

> <HYBRID receptor filename>
experiments/data/docking/5s18.oedu

> <HYBRID Chemgauss4 score>
-6.377854

> <HYBRID receptor title>
5S18(A) > WOY(A-201)

> <HYBRID receptor filename>
experiments/data/docking/5s18.oedu

> <Dock Type>
Hybrid

$$$$
MOL0342
  -OEChem-07032415493D

 16 16  0     0  0  0  0  0  0999 V2000
   -3.0159   14.5643   -1.1038 C   0  0  0  0  0  0  0  0  0  0  0  0
   -2.0011   14.7183   -0.2372 C   0  0  0  0  0  0  0  0  0  0  0  0
   -4.4165   14.5551   -0.7071 C   0  0  0  0  0  0  0  0  0  0  0  0
   -4.6978   14.7104    0.6022 C   0  0  0  0  0  0  0  0  0  0  0  0
   -2.3398   14.8893    1.2140 C   0  0  0  0  0  0  0  0  0  0  0  0
   -3.6870   14.8712    1.5212 N   0  0  0  0  0  0  0  0  0  0  0  0
   -0.6777   14.7326   -0.5635 N   0  0  0  0  0  0  0  0  0  0  0  0
   -5.3461   14.3890   -1.6970 N   0  0  0  0  0  0  0  0  0  0  0  0
   -1.4595   15.0348    2.0601 O   0  0  0  0  0  0  0  0  0  0  0  0
   -6.4388   14.7239    1.2888 Br  0  0  0  0  0  0  0  0  0  0  0  0
   -2.7985   14.4383   -2.1621 H   0  0  0  0  0  0  0  0  0  0  0  0
   -3.9498   14.9848    2.4958 H   0  0  0  0  0  0  0  0  0  0  0  0
   -0.4194   14.6212   -1.5203 H   0  0  0  0  0  0  0  0  0  0  0  0
   -0.0067   14.8542    0.1637 H   0  0  0  0  0  0  0  0  0  0  0  0
   -5.0270   14.2831   -2.6335 H   0  0  0  0  0  0  0  0  0  0  0  0
   -6.3085   14.3798   -1.4464 H   0  0  0  0  0  0  0  0  0  0  0  0
  1  2  2  0  0  0  0
  1  3  1  0  0  0  0
  2  5  1  0  0  0  0
  2  7  1  0  0  0  0
  3  4  2  0  0  0  0
  3  8  1  0  0  0  0
  4  6  1  0  0  0  0
  4 10  1  0  0  0  0
  5  6  1  0  0  0  0
  5  9  2  0  0  0  0
  1 11  1  0  0  0  0
  6 12  1  0  0  0  0
  7 13  1  0  0  0  0
  7 14  1  0  0  0  0
  8 15  1  0  0  0  0
  8 16  1  0  0  0  0
M  END
> <HYBRID receptor title>
5S18(A) > WOY(A-201)

> <HYBRID receptor filename>
experiments/data/docking/5s18.oedu

> <HYBRID Chemgauss4 score>
-6.371278

> <HYBRID receptor title>
5S18(A) > WOY(A-201)

> <HYBRID receptor filename>
experiments/data/docking/5s18.oedu

> <Dock Type>
Hybrid

$$$$
MOL0414
  -OEChem-07032415493D

 27 27  0     1  0  0  0  0  0999 V2000
   -2.8014   14.8022   -0.9137 C   0  0  0  0  0  0  0  0  0  0  0  0
   -4.6500   14.5941    0.6015 C   0  0  0  0  0  0  0  0  0  0  0  0
   -4.2153   14.6040   -0.6660 C   0  0  0  0  0  0  0  0  0  0  0  0
   -1.9114   14.9756    0.0786 C   0  0  0  0  0  0  0  0  0  0  0  0
   -2.4194   14.9614    1.4961 C   0  0  0  0  0  0  0  0  0  0  0  0
   -6.5517   14.2835   -1.3509 C   0  0  0  0  0  0  0  0  0  0  0  0
   -4.9018   14.1961   -5.1782 C   0  0  0  0  0  0  0  0  0  0  0  0
   -4.6232   13.2039   -2.6378 C   0  0  0  0  0  0  0  0  0  0  0  0
   -5.1139   14.4210   -1.8474 C   0  0  2  0  0  0  0  0  0  0  0  0
   -3.7826   14.7668    1.6482 N   0  0  0  0  0  0  0  0  0  0  0  0
   -0.5719   15.1661   -0.0874 N   0  0  0  0  0  0  0  0  0  0  0  0
   -1.6538   15.1147    2.4460 O   0  0  0  0  0  0  0  0  0  0  0  0
   -5.6036   12.8969   -4.1366 S   0  0  0  0  0  0  0  0  0  0  0  0
   -2.4710   14.8070   -1.9490 H   0  0  0  0  0  0  0  0  0  0  0  0
   -5.6891   14.4523    0.8720 H   0  0  0  0  0  0  0  0  0  0  0  0
   -6.6851   13.3887   -0.7352 H   0  0  0  0  0  0  0  0  0  0  0  0
   -7.2467   14.2095   -2.1955 H   0  0  0  0  0  0  0  0  0  0  0  0
   -6.8520   15.1548   -0.7577 H   0  0  0  0  0  0  0  0  0  0  0  0
   -5.3762   14.1800   -6.1627 H   0  0  0  0  0  0  0  0  0  0  0  0
   -5.0689   15.1723   -4.7168 H   0  0  0  0  0  0  0  0  0  0  0  0
   -3.8271   14.0364   -5.2976 H   0  0  0  0  0  0  0  0  0  0  0  0
   -4.6482   12.3015   -2.0158 H   0  0  0  0  0  0  0  0  0  0  0  0
   -3.5815   13.3483   -2.9470 H   0  0  0  0  0  0  0  0  0  0  0  0
   -5.0251   15.3288   -2.4589 H   0  0  0  0  0  0  0  0  0  0  0  0
   -4.1612   14.7512    2.5907 H   0  0  0  0  0  0  0  0  0  0  0  0
   -0.2018   15.1814   -1.0134 H   0  0  0  0  0  0  0  0  0  0  0  0
   -0.0015   15.2847    0.7216 H   0  0  0  0  0  0  0  0  0  0  0  0
  1  3  1  0  0  0  0
  1  4  2  0  0  0  0
  2  3  2  0  0  0  0
  2 10  1  0  0  0  0
  3  9  1  0  0  0  0
  4  5  1  0  0  0  0
  4 11  1  0  0  0  0
  5 10  1  0  0  0  0
  5 12  2  0  0  0  0
  6  9  1  0  0  0  0
  7 13  1  0  0  0  0
  8  9  1  0  0  0  0
  8 13  1  0  0  0  0
  1 14  1  0  0  0  0
  2 15  1  0  0  0  0
  6 16  1  0  0  0  0
  6 17  1  0  0  0  0
  6 18  1  0  0  0  0
  7 19  1  0  0  0  0
  7 20  1  0  0  0  0
  7 21  1  0  0  0  0
  8 22  1  0  0  0  0
  8 23  1  0  0  0  0
  9 24  1  0  0  0  0
 10 25  1  0  0  0  0
 11 26  1  0  0  0  0
 11 27  1  0  0  0  0
M  END
> <HYBRID receptor title>
5S18(A) > WOY(A-201)

> <HYBRID receptor filename>
experiments/data/docking/5s18.oedu

> <HYBRID Chemgauss4 score>
-6.370187

> <HYBRID receptor title>
5S18(A) > WOY(A-201)

> <HYBRID receptor filename>
experiments/data/docking/5s18.oedu

> <Dock Type>
Hybrid

$$$$
MOL0337
  -OEChem-07032415493D

 23 24  0     0  0  0  0  0  0999 V2000
   -4.6068   14.7499   -0.8774 C   0  0  0  0  0  0  0  0  0  0  0  0
   -4.8700   14.6539    0.4845 C   0  0  0  0  0  0  0  0  0  0  0  0
   -3.2909   14.7822   -1.3252 C   0  0  0  0  0  0  0  0  0  0  0  0
   -3.7899   14.5936    1.3510 C   0  0  0  0  0  0  0  0  0  0  0  0
   -2.2816   14.7163   -0.3783 C   0  0  0  0  0  0  0  0  0  0  0  0
   -0.4647   14.8402   -2.1851 C   0  0  0  0  0  0  0  0  0  0  0  0
    0.0635   14.6810    0.1483 C   0  0  0  0  0  0  0  0  0  0  0  0
   -0.8888   14.7445   -0.7972 C   0  0  0  0  0  0  0  0  0  0  0  0
    0.8280   14.8650   -2.5539 C   0  0  0  0  0  0  0  0  0  0  0  0
    1.8728   14.7910   -1.4743 C   0  0  0  0  0  0  0  0  0  0  0  0
   -2.4982   14.6225    0.9528 N   0  0  0  0  0  0  0  0  0  0  0  0
    1.3946   14.7025   -0.1785 N   0  0  0  0  0  0  0  0  0  0  0  0
    1.2813   14.9546   -3.8363 N   0  0  0  0  0  0  0  0  0  0  0  0
    3.0716   14.8083   -1.7478 O   0  0  0  0  0  0  0  0  0  0  0  0
   -5.4256   14.8007   -1.5888 H   0  0  0  0  0  0  0  0  0  0  0  0
   -5.8878   14.6303    0.8568 H   0  0  0  0  0  0  0  0  0  0  0  0
   -3.0782   14.8572   -2.3869 H   0  0  0  0  0  0  0  0  0  0  0  0
   -3.9412   14.5203    2.4229 H   0  0  0  0  0  0  0  0  0  0  0  0
   -1.2476   14.8933   -2.9375 H   0  0  0  0  0  0  0  0  0  0  0  0
   -0.1501   14.6098    1.2088 H   0  0  0  0  0  0  0  0  0  0  0  0
    2.0635   14.6507    0.5843 H   0  0  0  0  0  0  0  0  0  0  0  0
    0.6153   15.0071   -4.5767 H   0  0  0  0  0  0  0  0  0  0  0  0
    2.2652   14.9651   -3.9964 H   0  0  0  0  0  0  0  0  0  0  0  0
  1  2  1  0  0  0  0
  1  3  2  0  0  0  0
  2  4  2  0  0  0  0
  3  5  1  0  0  0  0
  4 11  1  0  0  0  0
  5  8  1  0  0  0  0
  5 11  2  0  0  0  0
  6  8  1  0  0  0  0
  6  9  2  0  0  0  0
  7  8  2  0  0  0  0
  7 12  1  0  0  0  0
  9 10  1  0  0  0  0
  9 13  1  0  0  0  0
 10 12  1  0  0  0  0
 10 14  2  0  0  0  0
  1 15  1  0  0  0  0
  2 16  1  0  0  0  0
  3 17  1  0  0  0  0
  4 18  1  0  0  0  0
  6 19  1  0  0  0  0
  7 20  1  0  0  0  0
 12 21  1  0  0  0  0
 13 22  1  0  0  0  0
 13 23  1  0  0  0  0
M  END
> <HYBRID receptor title>
5S18(A) > WOY(A-201)

> <HYBRID receptor filename>
experiments/data/docking/5s18.oedu

> <HYBRID Chemgauss4 score>
-6.367050

> <HYBRID receptor title>
5S18(A) > WOY(A-201)

> <HYBRID receptor filename>
experiments/data/docking/5s18.oedu

> <Dock Type>
Hybrid

$$$$
MOL0326
  -OEChem-07032415493D

 17 17  0     0  0  0  0  0  0999 V2000
   -4.0660   14.9598    0.4616 C   0  0  0  0  0  0  0  0  0  0  0  0
   -1.3268   14.9234   -0.1554 C   0  0  0  0  0  0  0  0  0  0  0  0
   -2.2423   14.9384   -1.1532 C   0  0  0  0  0  0  0  0  0  0  0  0
   -3.6545   14.9575   -0.8071 C   0  0  0  0  0  0  0  0  0  0  0  0
   -1.7901   14.9260    1.2847 C   0  0  0  0  0  0  0  0  0  0  0  0
    0.1646   14.9042   -0.3388 C   0  0  0  0  0  0  0  0  0  0  0  0
   -3.1584   14.9446    1.4826 N   0  0  0  0  0  0  0  0  0  0  0  0
   -1.9526   14.9367   -2.4911 N   0  0  0  0  0  0  0  0  0  0  0  0
   -0.9821   14.9120    2.2117 O   0  0  0  0  0  0  0  0  0  0  0  0
   -4.5636   14.9744   -1.8052 F   0  0  0  0  0  0  0  0  0  0  0  0
    0.4852   14.9037   -1.6472 F   0  0  0  0  0  0  0  0  0  0  0  0
    0.7342   15.9840    0.2303 F   0  0  0  0  0  0  0  0  0  0  0  0
    0.7014   13.8039    0.2236 F   0  0  0  0  0  0  0  0  0  0  0  0
   -5.1106   14.9742    0.7443 H   0  0  0  0  0  0  0  0  0  0  0  0
   -3.5069   14.9470    2.4366 H   0  0  0  0  0  0  0  0  0  0  0  0
   -0.9975   14.9234   -2.7680 H   0  0  0  0  0  0  0  0  0  0  0  0
   -2.7072   14.9486   -3.1382 H   0  0  0  0  0  0  0  0  0  0  0  0
  1  4  2  0  0  0  0
  1  7  1  0  0  0  0
  2  3  2  0  0  0  0
  2  5  1  0  0  0  0
  2  6  1  0  0  0  0
  3  4  1  0  0  0  0
  3  8  1  0  0  0  0
  4 10  1  0  0  0  0
  5  7  1  0  0  0  0
  5  9  2  0  0  0  0
  6 11  1  0  0  0  0
  6 12  1  0  0  0  0
  6 13  1  0  0  0  0
  1 14  1  0  0  0  0
  7 15  1  0  0  0  0
  8 16  1  0  0  0  0
  8 17  1  0  0  0  0
M  END
> <HYBRID receptor title>
5S18(A) > WOY(A-201)

> <HYBRID receptor filename>
experiments/data/docking/5s18.oedu

> <HYBRID Chemgauss4 score>
-6.363883

> <HYBRID receptor title>
5S18(A) > WOY(A-201)

> <HYBRID receptor filename>
experiments/data/docking/5s18.oedu

> <Dock Type>
Hybrid

$$$$
MOL0354
  -OEChem-07032415493D

 14 14  0     0  0  0  0  0  0999 V2000
   -4.9686   14.4330   -0.2903 C   0  0  0  0  0  0  0  0  0  0  0  0
   -2.5851   14.7884   -0.1817 C   0  0  0  0  0  0  0  0  0  0  0  0
   -5.0603   14.4418    1.0443 C   0  0  0  0  0  0  0  0  0  0  0  0
   -3.6816   14.6132   -0.9432 C   0  0  0  0  0  0  0  0  0  0  0  0
   -2.6778   14.7995    1.3085 C   0  0  0  0  0  0  0  0  0  0  0  0
   -3.9485   14.6198    1.8255 N   0  0  0  0  0  0  0  0  0  0  0  0
   -3.6517   14.5950   -2.3098 N   0  0  0  0  0  0  0  0  0  0  0  0
   -1.6703   14.9602    1.9924 O   0  0  0  0  0  0  0  0  0  0  0  0
   -5.8556   14.2912   -0.8989 H   0  0  0  0  0  0  0  0  0  0  0  0
   -1.6009   14.9271   -0.6169 H   0  0  0  0  0  0  0  0  0  0  0  0
   -5.9980   14.3114    1.5693 H   0  0  0  0  0  0  0  0  0  0  0  0
   -4.0631   14.6199    2.8347 H   0  0  0  0  0  0  0  0  0  0  0  0
   -4.5066   14.4601   -2.8015 H   0  0  0  0  0  0  0  0  0  0  0  0
   -2.7765   14.7174   -2.7671 H   0  0  0  0  0  0  0  0  0  0  0  0
  1  3  2  0  0  0  0
  1  4  1  0  0  0  0
  2  4  2  0  0  0  0
  2  5  1  0  0  0  0
  3  6  1  0  0  0  0
  4  7  1  0  0  0  0
  5  6  1  0  0  0  0
  5  8  2  0  0  0  0
  1  9  1  0  0  0  0
  2 10  1  0  0  0  0
  3 11  1  0  0  0  0
  6 12  1  0  0  0  0
  7 13  1  0  0  0  0
  7 14  1  0  0  0  0
M  END
> <HYBRID receptor title>
5S18(A) > WOY(A-201)

> <HYBRID receptor filename>
experiments/data/docking/5s18.oedu

> <HYBRID Chemgauss4 score>
-6.361284

> <HYBRID receptor title>
5S18(A) > WOY(A-201)

> <HYBRID receptor filename>
experiments/data/docking/5s18.oedu

> <Dock Type>
Hybrid

$$$$
MOL0239
  -OEChem-07032415493D

 19 19  0     0  0  0  0  0  0999 V2000
   -3.5900   14.7163    0.5533 C   0  0  0  0  0  0  0  0  0  0  0  0
   -3.1347   14.5321   -0.6950 C   0  0  0  0  0  0  0  0  0  0  0  0
   -1.6848   14.5341   -0.9440 C   0  0  0  0  0  0  0  0  0  0  0  0
   -0.8252   14.7207    0.0881 C   0  0  0  0  0  0  0  0  0  0  0  0
   -1.3656   14.9251    1.4802 C   0  0  0  0  0  0  0  0  0  0  0  0
   -4.0970   14.3249   -1.8307 C   0  0  0  0  0  0  0  0  0  0  0  0
   -2.7387   14.9059    1.6035 N   0  0  0  0  0  0  0  0  0  0  0  0
   -1.2441   14.3439   -2.2312 N   0  0  0  0  0  0  0  0  0  0  0  0
    0.5394   14.7437   -0.0044 N   0  0  0  0  0  0  0  0  0  0  0  0
   -0.6111   15.0983    2.4362 O   0  0  0  0  0  0  0  0  0  0  0  0
   -5.3697   14.3577   -1.3904 F   0  0  0  0  0  0  0  0  0  0  0  0
   -3.9535   15.2842   -2.7652 F   0  0  0  0  0  0  0  0  0  0  0  0
   -3.8896   13.1320   -2.4214 F   0  0  0  0  0  0  0  0  0  0  0  0
   -4.6440   14.7258    0.8042 H   0  0  0  0  0  0  0  0  0  0  0  0
   -3.1486   15.0401    2.5232 H   0  0  0  0  0  0  0  0  0  0  0  0
   -1.9223   14.2124   -2.9433 H   0  0  0  0  0  0  0  0  0  0  0  0
   -0.2660   14.3458   -2.3959 H   0  0  0  0  0  0  0  0  0  0  0  0
    0.9559   14.6141   -0.8987 H   0  0  0  0  0  0  0  0  0  0  0  0
    1.0681   14.8893    0.8253 H   0  0  0  0  0  0  0  0  0  0  0  0
  1  2  2  0  0  0  0
  1  7  1  0  0  0  0
  2  3  1  0  0  0  0
  2  6  1  0  0  0  0
  3  4  2  0  0  0  0
  3  8  1  0  0  0  0
  4  5  1  0  0  0  0
  4  9  1  0  0  0  0
  5  7  1  0  0  0  0
  5 10  2  0  0  0  0
  6 11  1  0  0  0  0
  6 12  1  0  0  0  0
  6 13  1  0  0  0  0
  1 14  1  0  0  0  0
  7 15  1  0  0  0  0
  8 16  1  0  0  0  0
  8 17  1  0  0  0  0
  9 18  1  0  0  0  0
  9 19  1  0  0  0  0
M  END
> <HYBRID receptor title>
5S18(A) > WOY(A-201)

> <HYBRID receptor filename>
experiments/data/docking/5s18.oedu

> <HYBRID Chemgauss4 score>
-6.359437

> <HYBRID receptor title>
5S18(A) > WOY(A-201)

> <HYBRID receptor filename>
experiments/data/docking/5s18.oedu

> <Dock Type>
Hybrid

$$$$
MOL0309
  -OEChem-07032415493D

 30 30  0     0  0  0  0  0  0999 V2000
   -2.2907   14.6234   -0.9198 C   0  0  0  0  0  0  0  0  0  0  0  0
   -4.0105   14.9911    0.7143 C   0  0  0  0  0  0  0  0  0  0  0  0
   -1.3090   14.6581   -0.0009 C   0  0  0  0  0  0  0  0  0  0  0  0
   -3.6861   14.7927   -0.5704 C   0  0  0  0  0  0  0  0  0  0  0  0
   -1.6912   14.8820    1.4382 C   0  0  0  0  0  0  0  0  0  0  0  0
   -5.4630   13.1334   -4.6740 C   0  0  0  0  0  0  0  0  0  0  0  0
   -5.3167   15.6209   -4.8432 C   0  0  0  0  0  0  0  0  0  0  0  0
   -3.4827   14.2138   -5.7564 C   0  0  0  0  0  0  0  0  0  0  0  0
   -3.7891   14.4492   -3.2505 C   0  0  0  0  0  0  0  0  0  0  0  0
   -4.4943   14.3302   -4.6279 C   0  0  0  0  0  0  0  0  0  0  0  0
   -3.0449   15.0341    1.6868 N   0  0  0  0  0  0  0  0  0  0  0  0
    0.0205   14.5060   -0.2617 N   0  0  0  0  0  0  0  0  0  0  0  0
   -0.8376   14.9235    2.3225 O   0  0  0  0  0  0  0  0  0  0  0  0
   -4.8727   14.7342   -1.8118 S   0  0  0  0  0  0  0  0  0  0  0  0
   -2.0397   14.4631   -1.9654 H   0  0  0  0  0  0  0  0  0  0  0  0
   -5.0256   15.1278    1.0683 H   0  0  0  0  0  0  0  0  0  0  0  0
   -4.9442   12.1801   -4.5276 H   0  0  0  0  0  0  0  0  0  0  0  0
   -5.9614   13.0712   -5.6488 H   0  0  0  0  0  0  0  0  0  0  0  0
   -6.2394   13.2225   -3.9064 H   0  0  0  0  0  0  0  0  0  0  0  0
   -4.6753   16.5101   -4.8200 H   0  0  0  0  0  0  0  0  0  0  0  0
   -6.0697   15.7446   -4.0563 H   0  0  0  0  0  0  0  0  0  0  0  0
   -5.8352   15.6064   -5.8084 H   0  0  0  0  0  0  0  0  0  0  0  0
   -2.7723   15.0494   -5.7589 H   0  0  0  0  0  0  0  0  0  0  0  0
   -2.8849   13.2968   -5.6581 H   0  0  0  0  0  0  0  0  0  0  0  0
   -3.9790   14.1828   -6.7342 H   0  0  0  0  0  0  0  0  0  0  0  0
   -3.2129   13.5403   -3.0421 H   0  0  0  0  0  0  0  0  0  0  0  0
   -3.0777   15.2829   -3.2720 H   0  0  0  0  0  0  0  0  0  0  0  0
   -3.3505   15.1875    2.6434 H   0  0  0  0  0  0  0  0  0  0  0  0
    0.3089   14.3559   -1.2044 H   0  0  0  0  0  0  0  0  0  0  0  0
    0.6650   14.5495    0.4975 H   0  0  0  0  0  0  0  0  0  0  0  0
  1  3  2  0  0  0  0
  1  4  1  0  0  0  0
  2  4  2  0  0  0  0
  2 11  1  0  0  0  0
  3  5  1  0  0  0  0
  3 12  1  0  0  0  0
  4 14  1  0  0  0  0
  5 11  1  0  0  0  0
  5 13  2  0  0  0  0
  6 10  1  0  0  0  0
  7 10  1  0  0  0  0
  8 10  1  0  0  0  0
  9 10  1  0  0  0  0
  9 14  1  0  0  0  0
  1 15  1  0  0  0  0
  2 16  1  0  0  0  0
  6 17  1  0  0  0  0
  6 18  1  0  0  0  0
  6 19  1  0  0  0  0
  7 20  1  0  0  0  0
  7 21  1  0  0  0  0
  7 22  1  0  0  0  0
  8 23  1  0  0  0  0
  8 24  1  0  0  0  0
  8 25  1  0  0  0  0
  9 26  1  0  0  0  0
  9 27  1  0  0  0  0
 11 28  1  0  0  0  0
 12 29  1  0  0  0  0
 12 30  1  0  0  0  0
M  END
> <HYBRID receptor title>
5S18(A) > WOY(A-201)

> <HYBRID receptor filename>
experiments/data/docking/5s18.oedu

> <HYBRID Chemgauss4 score>
-6.358120

> <HYBRID receptor title>
5S18(A) > WOY(A-201)

> <HYBRID receptor filename>
experiments/data/docking/5s18.oedu

> <Dock Type>
Hybrid

$$$$
MOL0270
  -OEChem-07032415493D

 20 20  0     0  0  0  0  0  0999 V2000
   -4.1852   15.1237    0.8845 C   0  0  0  0  0  0  0  0  0  0  0  0
   -3.9968   15.0289   -0.4401 C   0  0  0  0  0  0  0  0  0  0  0  0
   -1.5893   14.7875   -0.1087 C   0  0  0  0  0  0  0  0  0  0  0  0
   -2.6334   14.8517   -0.9730 C   0  0  0  0  0  0  0  0  0  0  0  0
   -1.8299   14.8972    1.3767 C   0  0  0  0  0  0  0  0  0  0  0  0
   -5.1729   15.1025   -1.3744 C   0  0  0  0  0  0  0  0  0  0  0  0
   -0.1434   14.6096   -0.4870 C   0  0  0  0  0  0  0  0  0  0  0  0
   -3.1425   15.0604    1.7627 N   0  0  0  0  0  0  0  0  0  0  0  0
   -2.4895   14.7591   -2.3358 N   0  0  0  0  0  0  0  0  0  0  0  0
   -0.9001   14.8419    2.1794 O   0  0  0  0  0  0  0  0  0  0  0  0
   -6.3192   15.2642   -0.6861 F   0  0  0  0  0  0  0  0  0  0  0  0
   -5.0465   16.1378   -2.2261 F   0  0  0  0  0  0  0  0  0  0  0  0
   -5.2763   13.9732   -2.1010 F   0  0  0  0  0  0  0  0  0  0  0  0
   -0.0093   14.5197   -1.8236 F   0  0  0  0  0  0  0  0  0  0  0  0
    0.5956   15.6507   -0.0603 F   0  0  0  0  0  0  0  0  0  0  0  0
    0.3574   13.4868    0.0618 F   0  0  0  0  0  0  0  0  0  0  0  0
   -5.1615   15.2543    1.3358 H   0  0  0  0  0  0  0  0  0  0  0  0
   -3.3551   15.1389    2.7529 H   0  0  0  0  0  0  0  0  0  0  0  0
   -3.3055   14.8154   -2.8977 H   0  0  0  0  0  0  0  0  0  0  0  0
   -1.5757   14.6399   -2.7031 H   0  0  0  0  0  0  0  0  0  0  0  0
  1  2  2  0  0  0  0
  1  8  1  0  0  0  0
  2  4  1  0  0  0  0
  2  6  1  0  0  0  0
  3  4  2  0  0  0  0
  3  5  1  0  0  0  0
  3  7  1  0  0  0  0
  4  9  1  0  0  0  0
  5  8  1  0  0  0  0
  5 10  2  0  0  0  0
  6 11  1  0  0  0  0
  6 12  1  0  0  0  0
  6 13  1  0  0  0  0
  7 14  1  0  0  0  0
  7 15  1  0  0  0  0
  7 16  1  0  0  0  0
  1 17  1  0  0  0  0
  8 18  1  0  0  0  0
  9 19  1  0  0  0  0
  9 20  1  0  0  0  0
M  END
> <HYBRID receptor title>
5S18(A) > WOY(A-201)

> <HYBRID receptor filename>
experiments/data/docking/5s18.oedu

> <HYBRID Chemgauss4 score>
-6.357621

> <HYBRID receptor title>
5S18(A) > WOY(A-201)

> <HYBRID receptor filename>
experiments/data/docking/5s18.oedu

> <Dock Type>
Hybrid

$$$$
MOL0276
  -OEChem-07032415493D

 21 22  0     0  0  0  0  0  0999 V2000
   -6.4856   14.8534   -2.7118 C   0  0  0  0  0  0  0  0  0  0  0  0
   -5.8757   14.5800   -1.4645 C   0  0  0  0  0  0  0  0  0  0  0  0
   -5.5065   15.4088   -3.5024 C   0  0  0  0  0  0  0  0  0  0  0  0
   -4.5673   14.9878   -1.5814 C   0  0  0  0  0  0  0  0  0  0  0  0
   -2.1445   14.7576   -0.8847 C   0  0  0  0  0  0  0  0  0  0  0  0
   -3.9377   15.0075    0.6872 C   0  0  0  0  0  0  0  0  0  0  0  0
   -3.5615   14.9181   -0.5994 C   0  0  0  0  0  0  0  0  0  0  0  0
   -1.2081   14.6939    0.0781 C   0  0  0  0  0  0  0  0  0  0  0  0
   -1.6580   14.7951    1.5098 C   0  0  0  0  0  0  0  0  0  0  0  0
   -3.0199   14.9472    1.7037 N   0  0  0  0  0  0  0  0  0  0  0  0
    0.1304   14.5438   -0.1322 N   0  0  0  0  0  0  0  0  0  0  0  0
   -0.8495   14.7436    2.4349 O   0  0  0  0  0  0  0  0  0  0  0  0
   -4.3343   15.4946   -2.8204 O   0  0  0  0  0  0  0  0  0  0  0  0
   -7.5104   14.6691   -2.9998 H   0  0  0  0  0  0  0  0  0  0  0  0
   -6.3408   14.1389   -0.5936 H   0  0  0  0  0  0  0  0  0  0  0  0
   -5.4842   15.7736   -4.5190 H   0  0  0  0  0  0  0  0  0  0  0  0
   -1.8553   14.6880   -1.9304 H   0  0  0  0  0  0  0  0  0  0  0  0
   -4.9671   15.1291    1.0060 H   0  0  0  0  0  0  0  0  0  0  0  0
   -3.3705   15.0201    2.6544 H   0  0  0  0  0  0  0  0  0  0  0  0
    0.4625   14.4737   -1.0700 H   0  0  0  0  0  0  0  0  0  0  0  0
    0.7379   14.5086    0.6574 H   0  0  0  0  0  0  0  0  0  0  0  0
  1  2  1  0  0  0  0
  1  3  2  0  0  0  0
  2  4  2  0  0  0  0
  3 13  1  0  0  0  0
  4  7  1  0  0  0  0
  4 13  1  0  0  0  0
  5  7  1  0  0  0  0
  5  8  2  0  0  0  0
  6  7  2  0  0  0  0
  6 10  1  0  0  0  0
  8  9  1  0  0  0  0
  8 11  1  0  0  0  0
  9 10  1  0  0  0  0
  9 12  2  0  0  0  0
  1 14  1  0  0  0  0
  2 15  1  0  0  0  0
  3 16  1  0  0  0  0
  5 17  1  0  0  0  0
  6 18  1  0  0  0  0
 10 19  1  0  0  0  0
 11 20  1  0  0  0  0
 11 21  1  0  0  0  0
M  END
> <HYBRID receptor title>
5S18(A) > WOY(A-201)

> <HYBRID receptor filename>
experiments/data/docking/5s18.oedu

> <HYBRID Chemgauss4 score>
-6.356030

> <HYBRID receptor title>
5S18(A) > WOY(A-201)

> <HYBRID receptor filename>
experiments/data/docking/5s18.oedu

> <Dock Type>
Hybrid

$$$$
MOL0045
  -OEChem-07032415493D

 23 23  0     0  0  0  0  0  0999 V2000
   -3.7885   15.1587   -1.0409 C   0  0  0  0  0  0  0  0  0  0  0  0
   -5.0493   15.0056    0.9947 C   0  0  0  0  0  0  0  0  0  0  0  0
   -5.0564   15.1205   -0.3404 C   0  0  0  0  0  0  0  0  0  0  0  0
   -2.6079   15.0829   -0.4026 C   0  0  0  0  0  0  0  0  0  0  0  0
   -2.6209   14.9544    1.0976 C   0  0  0  0  0  0  0  0  0  0  0  0
   -6.3082   15.2122   -1.1535 C   0  0  0  0  0  0  0  0  0  0  0  0
   -6.7925   13.8301   -1.5737 C   0  0  0  0  0  0  0  0  0  0  0  0
   -5.8116   13.0959   -2.4660 C   0  0  0  0  0  0  0  0  0  0  0  0
   -3.8721   14.9252    1.6915 N   0  0  0  0  0  0  0  0  0  0  0  0
   -1.3839   15.1130   -1.0017 N   0  0  0  0  0  0  0  0  0  0  0  0
   -1.5731   14.8809    1.7371 O   0  0  0  0  0  0  0  0  0  0  0  0
   -6.3306   11.9115   -2.8593 F   0  0  0  0  0  0  0  0  0  0  0  0
   -4.6500   12.8386   -1.8300 F   0  0  0  0  0  0  0  0  0  0  0  0
   -5.5311   13.8083   -3.5769 F   0  0  0  0  0  0  0  0  0  0  0  0
   -3.8177   15.2525   -2.1231 H   0  0  0  0  0  0  0  0  0  0  0  0
   -5.9516   14.9700    1.5926 H   0  0  0  0  0  0  0  0  0  0  0  0
   -7.0651   15.6901   -0.5244 H   0  0  0  0  0  0  0  0  0  0  0  0
   -6.1200   15.8519   -2.0191 H   0  0  0  0  0  0  0  0  0  0  0  0
   -7.0021   13.2161   -0.6901 H   0  0  0  0  0  0  0  0  0  0  0  0
   -7.7371   13.9427   -2.1187 H   0  0  0  0  0  0  0  0  0  0  0  0
   -3.9198   14.8392    2.7025 H   0  0  0  0  0  0  0  0  0  0  0  0
   -1.3389   15.1978   -1.9944 H   0  0  0  0  0  0  0  0  0  0  0  0
   -0.5696   15.0495   -0.4301 H   0  0  0  0  0  0  0  0  0  0  0  0
  1  3  1  0  0  0  0
  1  4  2  0  0  0  0
  2  3  2  0  0  0  0
  2  9  1  0  0  0  0
  3  6  1  0  0  0  0
  4  5  1  0  0  0  0
  4 10  1  0  0  0  0
  5  9  1  0  0  0  0
  5 11  2  0  0  0  0
  6  7  1  0  0  0  0
  7  8  1  0  0  0  0
  8 12  1  0  0  0  0
  8 13  1  0  0  0  0
  8 14  1  0  0  0  0
  1 15  1  0  0  0  0
  2 16  1  0  0  0  0
  6 17  1  0  0  0  0
  6 18  1  0  0  0  0
  7 19  1  0  0  0  0
  7 20  1  0  0  0  0
  9 21  1  0  0  0  0
 10 22  1  0  0  0  0
 10 23  1  0  0  0  0
M  END
> <HYBRID receptor title>
5S18(A) > WOY(A-201)

> <HYBRID receptor filename>
experiments/data/docking/5s18.oedu

> <HYBRID Chemgauss4 score>
-6.353757

> <HYBRID receptor title>
5S18(A) > WOY(A-201)

> <HYBRID receptor filename>
experiments/data/docking/5s18.oedu

> <Dock Type>
Hybrid

$$$$
MOL0211
  -OEChem-07032415493D

 21 21  0     0  0  0  0  0  0999 V2000
   -2.9919   14.7881   -1.1021 C   0  0  0  0  0  0  0  0  0  0  0  0
   -4.4842   15.0244    0.7707 C   0  0  0  0  0  0  0  0  0  0  0  0
   -1.8969   14.7964   -0.3210 C   0  0  0  0  0  0  0  0  0  0  0  0
   -4.3213   14.9047   -0.5503 C   0  0  0  0  0  0  0  0  0  0  0  0
   -2.0874   14.9322    1.1691 C   0  0  0  0  0  0  0  0  0  0  0  0
   -6.5224   14.3291   -0.8856 C   0  0  0  0  0  0  0  0  0  0  0  0
   -7.6302   15.3483   -0.9453 C   0  0  0  0  0  0  0  0  0  0  0  0
   -3.3986   15.0381    1.6071 N   0  0  0  0  0  0  0  0  0  0  0  0
   -0.6123   14.6912   -0.7649 N   0  0  0  0  0  0  0  0  0  0  0  0
   -1.1227   14.9460    1.9318 O   0  0  0  0  0  0  0  0  0  0  0  0
   -5.3507   14.8837   -1.4580 O   0  0  0  0  0  0  0  0  0  0  0  0
   -7.2852   16.4649   -0.2698 F   0  0  0  0  0  0  0  0  0  0  0  0
   -8.7663   14.8696   -0.3954 F   0  0  0  0  0  0  0  0  0  0  0  0
   -7.8993   15.7050   -2.2189 F   0  0  0  0  0  0  0  0  0  0  0  0
   -2.8994   14.6918   -2.1802 H   0  0  0  0  0  0  0  0  0  0  0  0
   -5.4524   15.1158    1.2467 H   0  0  0  0  0  0  0  0  0  0  0  0
   -6.3105   14.0525    0.1510 H   0  0  0  0  0  0  0  0  0  0  0  0
   -6.7965   13.4303   -1.4461 H   0  0  0  0  0  0  0  0  0  0  0  0
   -3.5641   15.1312    2.6049 H   0  0  0  0  0  0  0  0  0  0  0  0
   -0.4506   14.6000   -1.7447 H   0  0  0  0  0  0  0  0  0  0  0  0
    0.1276   14.7087   -0.0971 H   0  0  0  0  0  0  0  0  0  0  0  0
  1  3  2  0  0  0  0
  1  4  1  0  0  0  0
  2  4  2  0  0  0  0
  2  8  1  0  0  0  0
  3  5  1  0  0  0  0
  3  9  1  0  0  0  0
  4 11  1  0  0  0  0
  5  8  1  0  0  0  0
  5 10  2  0  0  0  0
  6  7  1  0  0  0  0
  6 11  1  0  0  0  0
  7 12  1  0  0  0  0
  7 13  1  0  0  0  0
  7 14  1  0  0  0  0
  1 15  1  0  0  0  0
  2 16  1  0  0  0  0
  6 17  1  0  0  0  0
  6 18  1  0  0  0  0
  8 19  1  0  0  0  0
  9 20  1  0  0  0  0
  9 21  1  0  0  0  0
M  END
> <HYBRID receptor title>
5S18(A) > WOY(A-201)

> <HYBRID receptor filename>
experiments/data/docking/5s18.oedu

> <HYBRID Chemgauss4 score>
-6.351205

> <HYBRID receptor title>
5S18(A) > WOY(A-201)

> <HYBRID receptor filename>
experiments/data/docking/5s18.oedu

> <Dock Type>
Hybrid

$$$$
MOL0258
  -OEChem-07032415493D

 27 27  0     0  0  0  0  0  0999 V2000
   -1.9728   14.6723   -1.2810 C   0  0  0  0  0  0  0  0  0  0  0  0
   -3.7497   15.0276    0.2936 C   0  0  0  0  0  0  0  0  0  0  0  0
   -1.0413   14.5663   -0.3164 C   0  0  0  0  0  0  0  0  0  0  0  0
   -3.3709   14.9095   -0.9861 C   0  0  0  0  0  0  0  0  0  0  0  0
   -1.4843   14.7015    1.1162 C   0  0  0  0  0  0  0  0  0  0  0  0
   -5.4958   13.4672   -4.9404 C   0  0  0  0  0  0  0  0  0  0  0  0
   -6.3932   11.5697   -3.5819 C   0  0  0  0  0  0  0  0  0  0  0  0
   -4.9793   13.2989   -2.4457 C   0  0  0  0  0  0  0  0  0  0  0  0
   -6.0101   13.0528   -3.5588 C   0  0  0  0  0  0  0  0  0  0  0  0
   -2.8366   14.9266    1.3115 N   0  0  0  0  0  0  0  0  0  0  0  0
    0.2875   14.3438   -0.5250 N   0  0  0  0  0  0  0  0  0  0  0  0
   -0.6782   14.6138    2.0408 O   0  0  0  0  0  0  0  0  0  0  0  0
   -4.5000   15.0325   -2.2940 S   0  0  0  0  0  0  0  0  0  0  0  0
   -1.6773   14.5782   -2.3231 H   0  0  0  0  0  0  0  0  0  0  0  0
   -4.7712   15.2056    0.6086 H   0  0  0  0  0  0  0  0  0  0  0  0
   -4.5832   12.9170   -5.1937 H   0  0  0  0  0  0  0  0  0  0  0  0
   -6.2290   13.2555   -5.7252 H   0  0  0  0  0  0  0  0  0  0  0  0
   -5.2630   14.5371   -4.9723 H   0  0  0  0  0  0  0  0  0  0  0  0
   -5.5193   10.9446   -3.7948 H   0  0  0  0  0  0  0  0  0  0  0  0
   -6.8113   11.2523   -2.6202 H   0  0  0  0  0  0  0  0  0  0  0  0
   -7.1406   11.3725   -4.3583 H   0  0  0  0  0  0  0  0  0  0  0  0
   -4.0743   12.7076   -2.6204 H   0  0  0  0  0  0  0  0  0  0  0  0
   -5.3901   12.9929   -1.4773 H   0  0  0  0  0  0  0  0  0  0  0  0
   -6.9219   13.6238   -3.3420 H   0  0  0  0  0  0  0  0  0  0  0  0
   -3.1822   15.0246    2.2618 H   0  0  0  0  0  0  0  0  0  0  0  0
    0.6154   14.2491   -1.4619 H   0  0  0  0  0  0  0  0  0  0  0  0
    0.8921   14.2824    0.2652 H   0  0  0  0  0  0  0  0  0  0  0  0
  1  3  2  0  0  0  0
  1  4  1  0  0  0  0
  2  4  2  0  0  0  0
  2 10  1  0  0  0  0
  3  5  1  0  0  0  0
  3 11  1  0  0  0  0
  4 13  1  0  0  0  0
  5 10  1  0  0  0  0
  5 12  2  0  0  0  0
  6  9  1  0  0  0  0
  7  9  1  0  0  0  0
  8  9  1  0  0  0  0
  8 13  1  0  0  0  0
  1 14  1  0  0  0  0
  2 15  1  0  0  0  0
  6 16  1  0  0  0  0
  6 17  1  0  0  0  0
  6 18  1  0  0  0  0
  7 19  1  0  0  0  0
  7 20  1  0  0  0  0
  7 21  1  0  0  0  0
  8 22  1  0  0  0  0
  8 23  1  0  0  0  0
  9 24  1  0  0  0  0
 10 25  1  0  0  0  0
 11 26  1  0  0  0  0
 11 27  1  0  0  0  0
M  END
> <HYBRID receptor title>
5S18(A) > WOY(A-201)

> <HYBRID receptor filename>
experiments/data/docking/5s18.oedu

> <HYBRID Chemgauss4 score>
-6.345887

> <HYBRID receptor title>
5S18(A) > WOY(A-201)

> <HYBRID receptor filename>
experiments/data/docking/5s18.oedu

> <Dock Type>
Hybrid

$$$$
MOL0272
  -OEChem-07032415493D

 21 21  0     0  0  0  0  0  0999 V2000
   -2.2900   14.9392   -1.0583 C   0  0  0  0  0  0  0  0  0  0  0  0
   -4.0589   15.2048    0.5407 C   0  0  0  0  0  0  0  0  0  0  0  0
   -3.6935   15.1184   -0.7456 C   0  0  0  0  0  0  0  0  0  0  0  0
   -1.3429   14.8562   -0.1080 C   0  0  0  0  0  0  0  0  0  0  0  0
   -1.7735   14.9557    1.3315 C   0  0  0  0  0  0  0  0  0  0  0  0
   -5.7920   13.1527   -1.6349 C   0  0  0  0  0  0  0  0  0  0  0  0
   -4.6597   15.1972   -1.8844 C   0  0  0  0  0  0  0  0  0  0  0  0
   -3.1314   15.1263    1.5463 N   0  0  0  0  0  0  0  0  0  0  0  0
   -0.0095   14.6881   -0.3356 N   0  0  0  0  0  0  0  0  0  0  0  0
   -0.9534   14.8868    2.2452 O   0  0  0  0  0  0  0  0  0  0  0  0
   -4.8699   13.9027   -2.4174 O   0  0  0  0  0  0  0  0  0  0  0  0
   -2.0161   14.8720   -2.1078 H   0  0  0  0  0  0  0  0  0  0  0  0
   -5.0854   15.3389    0.8588 H   0  0  0  0  0  0  0  0  0  0  0  0
   -5.9268   12.1625   -2.0780 H   0  0  0  0  0  0  0  0  0  0  0  0
   -5.3947   13.0455   -0.6227 H   0  0  0  0  0  0  0  0  0  0  0  0
   -6.7487   13.6785   -1.5943 H   0  0  0  0  0  0  0  0  0  0  0  0
   -4.2732   15.8537   -2.6648 H   0  0  0  0  0  0  0  0  0  0  0  0
   -5.6127   15.5932   -1.5321 H   0  0  0  0  0  0  0  0  0  0  0  0
   -3.4587   15.1973    2.5054 H   0  0  0  0  0  0  0  0  0  0  0  0
    0.3102   14.6188   -1.2777 H   0  0  0  0  0  0  0  0  0  0  0  0
    0.6070   14.6395    0.4463 H   0  0  0  0  0  0  0  0  0  0  0  0
  1  3  1  0  0  0  0
  1  4  2  0  0  0  0
  2  3  2  0  0  0  0
  2  8  1  0  0  0  0
  3  7  1  0  0  0  0
  4  5  1  0  0  0  0
  4  9  1  0  0  0  0
  5  8  1  0  0  0  0
  5 10  2  0  0  0  0
  6 11  1  0  0  0  0
  7 11  1  0  0  0  0
  1 12  1  0  0  0  0
  2 13  1  0  0  0  0
  6 14  1  0  0  0  0
  6 15  1  0  0  0  0
  6 16  1  0  0  0  0
  7 17  1  0  0  0  0
  7 18  1  0  0  0  0
  8 19  1  0  0  0  0
  9 20  1  0  0  0  0
  9 21  1  0  0  0  0
M  END
> <HYBRID receptor title>
5S18(A) > WOY(A-201)

> <HYBRID receptor filename>
experiments/data/docking/5s18.oedu

> <HYBRID Chemgauss4 score>
-6.329236

> <HYBRID receptor title>
5S18(A) > WOY(A-201)

> <HYBRID receptor filename>
experiments/data/docking/5s18.oedu

> <Dock Type>
Hybrid

$$$$
MOL0051
  -OEChem-07032415493D

 18 18  0     0  0  0  0  0  0999 V2000
   -2.6695   14.7037   -1.0456 C   0  0  0  0  0  0  0  0  0  0  0  0
   -4.3434   14.9521    0.6651 C   0  0  0  0  0  0  0  0  0  0  0  0
   -1.6571   14.7576   -0.1617 C   0  0  0  0  0  0  0  0  0  0  0  0
   -4.0489   14.8029   -0.6298 C   0  0  0  0  0  0  0  0  0  0  0  0
   -1.9960   14.9266    1.2984 C   0  0  0  0  0  0  0  0  0  0  0  0
   -6.2970   14.8422   -1.1124 C   0  0  0  0  0  0  0  0  0  0  0  0
   -3.3458   15.0126    1.6029 N   0  0  0  0  0  0  0  0  0  0  0  0
   -0.3331   14.6715   -0.4747 N   0  0  0  0  0  0  0  0  0  0  0  0
   -1.1114   14.9824    2.1511 O   0  0  0  0  0  0  0  0  0  0  0  0
   -4.9834   14.7347   -1.6329 O   0  0  0  0  0  0  0  0  0  0  0  0
   -2.4694   14.5823   -2.1065 H   0  0  0  0  0  0  0  0  0  0  0  0
   -5.3554   15.0328    1.0415 H   0  0  0  0  0  0  0  0  0  0  0  0
   -7.0200   14.7850   -1.9302 H   0  0  0  0  0  0  0  0  0  0  0  0
   -6.4721   14.0187   -0.4159 H   0  0  0  0  0  0  0  0  0  0  0  0
   -6.4036   15.7921   -0.5836 H   0  0  0  0  0  0  0  0  0  0  0  0
   -3.6105   15.1271    2.5769 H   0  0  0  0  0  0  0  0  0  0  0  0
   -0.0739   14.5593   -1.4312 H   0  0  0  0  0  0  0  0  0  0  0  0
    0.3370   14.7233    0.2615 H   0  0  0  0  0  0  0  0  0  0  0  0
  1  3  2  0  0  0  0
  1  4  1  0  0  0  0
  2  4  2  0  0  0  0
  2  7  1  0  0  0  0
  3  5  1  0  0  0  0
  3  8  1  0  0  0  0
  4 10  1  0  0  0  0
  5  7  1  0  0  0  0
  5  9  2  0  0  0  0
  6 10  1  0  0  0  0
  1 11  1  0  0  0  0
  2 12  1  0  0  0  0
  6 13  1  0  0  0  0
  6 14  1  0  0  0  0
  6 15  1  0  0  0  0
  7 16  1  0  0  0  0
  8 17  1  0  0  0  0
  8 18  1  0  0  0  0
M  END
> <HYBRID receptor title>
5S18(A) > WOY(A-201)

> <HYBRID receptor filename>
experiments/data/docking/5s18.oedu

> <HYBRID Chemgauss4 score>
-6.328378

> <HYBRID receptor title>
5S18(A) > WOY(A-201)

> <HYBRID receptor filename>
experiments/data/docking/5s18.oedu

> <Dock Type>
Hybrid

$$$$
MOL0138
  -OEChem-07032415493D

 22 22  0     0  0  0  0  0  0999 V2000
   -3.3822   14.9696    0.4102 C   0  0  0  0  0  0  0  0  0  0  0  0
   -2.2615   14.5361   -1.6603 C   0  0  0  0  0  0  0  0  0  0  0  0
   -3.4129   14.7409   -1.0087 C   0  0  0  0  0  0  0  0  0  0  0  0
   -2.2346   14.9901    1.1003 C   0  0  0  0  0  0  0  0  0  0  0  0
   -0.9335   14.7690    0.3657 C   0  0  0  0  0  0  0  0  0  0  0  0
    0.1044   14.2983   -1.8856 C   0  0  0  0  0  0  0  0  0  0  0  0
   -4.7497   14.7416   -1.6828 C   0  0  0  0  0  0  0  0  0  0  0  0
    0.3307   15.2746   -3.0137 C   0  0  0  0  0  0  0  0  0  0  0  0
   -1.0115   14.5333   -1.0356 N   0  0  0  0  0  0  0  0  0  0  0  0
   -2.1441   15.2022    2.4459 N   0  0  0  0  0  0  0  0  0  0  0  0
    0.1062   14.8115    1.0252 O   0  0  0  0  0  0  0  0  0  0  0  0
    0.8911   13.3531   -1.7636 O   0  0  0  0  0  0  0  0  0  0  0  0
   -5.7392   14.9683   -0.7940 F   0  0  0  0  0  0  0  0  0  0  0  0
   -4.8179   15.6998   -2.6299 F   0  0  0  0  0  0  0  0  0  0  0  0
   -4.9922   13.5552   -2.2777 F   0  0  0  0  0  0  0  0  0  0  0  0
   -0.6126   16.2332   -3.0042 F   0  0  0  0  0  0  0  0  0  0  0  0
    1.5337   15.8644   -2.8984 F   0  0  0  0  0  0  0  0  0  0  0  0
    0.2813   14.6440   -4.2007 F   0  0  0  0  0  0  0  0  0  0  0  0
   -4.3295   15.1273    0.9186 H   0  0  0  0  0  0  0  0  0  0  0  0
   -2.2763   14.3586   -2.7309 H   0  0  0  0  0  0  0  0  0  0  0  0
   -2.9828   15.3534    2.9619 H   0  0  0  0  0  0  0  0  0  0  0  0
   -1.2427   15.1989    2.8692 H   0  0  0  0  0  0  0  0  0  0  0  0
  1  3  1  0  0  0  0
  1  4  2  0  0  0  0
  2  3  2  0  0  0  0
  2  9  1  0  0  0  0
  3  7  1  0  0  0  0
  4  5  1  0  0  0  0
  4 10  1  0  0  0  0
  5  9  1  0  0  0  0
  5 11  2  0  0  0  0
  6  8  1  0  0  0  0
  6  9  1  0  0  0  0
  6 12  2  0  0  0  0
  7 13  1  0  0  0  0
  7 14  1  0  0  0  0
  7 15  1  0  0  0  0
  8 16  1  0  0  0  0
  8 17  1  0  0  0  0
  8 18  1  0  0  0  0
  1 19  1  0  0  0  0
  2 20  1  0  0  0  0
 10 21  1  0  0  0  0
 10 22  1  0  0  0  0
M  END
> <HYBRID receptor title>
5S18(A) > WOY(A-201)

> <HYBRID receptor filename>
experiments/data/docking/5s18.oedu

> <HYBRID Chemgauss4 score>
-6.325906

> <HYBRID receptor title>
5S18(A) > WOY(A-201)

> <HYBRID receptor filename>
experiments/data/docking/5s18.oedu

> <Dock Type>
Hybrid

$$$$
MOL0190
  -OEChem-07032415493D

 21 21  0     0  0  0  0  0  0999 V2000
   -2.7958   15.1366   -1.1459 C   0  0  0  0  0  0  0  0  0  0  0  0
   -4.3191   15.5120    0.6787 C   0  0  0  0  0  0  0  0  0  0  0  0
   -1.7671   14.8631   -0.3235 C   0  0  0  0  0  0  0  0  0  0  0  0
   -4.1066   15.4702   -0.6400 C   0  0  0  0  0  0  0  0  0  0  0  0
   -2.0131   14.9125    1.1638 C   0  0  0  0  0  0  0  0  0  0  0  0
   -6.3753   13.8918   -0.8051 C   0  0  0  0  0  0  0  0  0  0  0  0
   -6.3546   15.3735   -1.1152 C   0  0  0  0  0  0  0  0  0  0  0  0
   -3.3016   15.2413    1.5562 N   0  0  0  0  0  0  0  0  0  0  0  0
   -0.5042   14.5408   -0.7227 N   0  0  0  0  0  0  0  0  0  0  0  0
   -1.1098   14.6718    1.9630 O   0  0  0  0  0  0  0  0  0  0  0  0
   -5.0663   15.7284   -1.5867 O   0  0  0  0  0  0  0  0  0  0  0  0
   -2.6619   15.1118   -2.2236 H   0  0  0  0  0  0  0  0  0  0  0  0
   -5.2766   15.7554    1.1215 H   0  0  0  0  0  0  0  0  0  0  0  0
   -6.1565   13.3025   -1.7000 H   0  0  0  0  0  0  0  0  0  0  0  0
   -5.6383   13.6490   -0.0327 H   0  0  0  0  0  0  0  0  0  0  0  0
   -7.3540   13.5933   -0.4160 H   0  0  0  0  0  0  0  0  0  0  0  0
   -6.5740   15.9570   -0.2163 H   0  0  0  0  0  0  0  0  0  0  0  0
   -7.0912   15.6148   -1.8879 H   0  0  0  0  0  0  0  0  0  0  0  0
   -3.5030   15.2841    2.5508 H   0  0  0  0  0  0  0  0  0  0  0  0
   -0.3071   14.4992   -1.6994 H   0  0  0  0  0  0  0  0  0  0  0  0
    0.1852   14.3562   -0.0267 H   0  0  0  0  0  0  0  0  0  0  0  0
  1  3  2  0  0  0  0
  1  4  1  0  0  0  0
  2  4  2  0  0  0  0
  2  8  1  0  0  0  0
  3  5  1  0  0  0  0
  3  9  1  0  0  0  0
  4 11  1  0  0  0  0
  5  8  1  0  0  0  0
  5 10  2  0  0  0  0
  6  7  1  0  0  0  0
  7 11  1  0  0  0  0
  1 12  1  0  0  0  0
  2 13  1  0  0  0  0
  6 14  1  0  0  0  0
  6 15  1  0  0  0  0
  6 16  1  0  0  0  0
  7 17  1  0  0  0  0
  7 18  1  0  0  0  0
  8 19  1  0  0  0  0
  9 20  1  0  0  0  0
  9 21  1  0  0  0  0
M  END
> <HYBRID receptor title>
5S18(A) > WOY(A-201)

> <HYBRID receptor filename>
experiments/data/docking/5s18.oedu

> <HYBRID Chemgauss4 score>
-6.325531

> <HYBRID receptor title>
5S18(A) > WOY(A-201)

> <HYBRID receptor filename>
experiments/data/docking/5s18.oedu

> <Dock Type>
Hybrid

$$$$
MOL0214
  -OEChem-07032415493D

 23 24  0     0  0  0  0  0  0999 V2000
   -3.2255   14.8045   -0.9076 C   0  0  0  0  0  0  0  0  0  0  0  0
   -4.6092   14.6774    1.0484 C   0  0  0  0  0  0  0  0  0  0  0  0
   -4.5296   14.6753   -0.2893 C   0  0  0  0  0  0  0  0  0  0  0  0
   -2.0949   14.9257   -0.1907 C   0  0  0  0  0  0  0  0  0  0  0  0
   -2.2051   14.9261    1.3111 C   0  0  0  0  0  0  0  0  0  0  0  0
   -7.0413   14.4154   -0.5534 C   0  0  0  0  0  0  0  0  0  0  0  0
   -6.6598   15.7000   -1.2205 C   0  0  0  0  0  0  0  0  0  0  0  0
   -5.6879   14.5494   -1.2003 C   0  0  0  0  0  0  0  0  0  0  0  0
   -3.4858   14.7987    1.8236 N   0  0  0  0  0  0  0  0  0  0  0  0
   -0.8407   15.0503   -0.7101 N   0  0  0  0  0  0  0  0  0  0  0  0
   -5.3917   13.8175   -2.4368 N   0  0  0  0  0  0  0  0  0  0  0  0
   -1.2064   15.0344    2.0205 O   0  0  0  0  0  0  0  0  0  0  0  0
   -3.1804   14.8008   -1.9936 H   0  0  0  0  0  0  0  0  0  0  0  0
   -5.5443   14.5859    1.5872 H   0  0  0  0  0  0  0  0  0  0  0  0
   -7.1205   14.4159    0.5280 H   0  0  0  0  0  0  0  0  0  0  0  0
   -7.7847   13.7969   -1.0435 H   0  0  0  0  0  0  0  0  0  0  0  0
   -7.1464   15.9418   -2.1587 H   0  0  0  0  0  0  0  0  0  0  0  0
   -6.4830   16.5616   -0.5867 H   0  0  0  0  0  0  0  0  0  0  0  0
   -3.6096   14.7939    2.8319 H   0  0  0  0  0  0  0  0  0  0  0  0
   -0.7315   15.0540   -1.7014 H   0  0  0  0  0  0  0  0  0  0  0  0
   -0.0696   15.1341   -0.0839 H   0  0  0  0  0  0  0  0  0  0  0  0
   -5.0545   12.8928   -2.1924 H   0  0  0  0  0  0  0  0  0  0  0  0
   -4.6342   14.2894   -2.9190 H   0  0  0  0  0  0  0  0  0  0  0  0
  1  3  1  0  0  0  0
  1  4  2  0  0  0  0
  2  3  2  0  0  0  0
  2  9  1  0  0  0  0
  3  8  1  0  0  0  0
  4  5  1  0  0  0  0
  4 10  1  0  0  0  0
  5  9  1  0  0  0  0
  5 12  2  0  0  0  0
  6  7  1  0  0  0  0
  6  8  1  0  0  0  0
  7  8  1  0  0  0  0
  8 11  1  0  0  0  0
  1 13  1  0  0  0  0
  2 14  1  0  0  0  0
  6 15  1  0  0  0  0
  6 16  1  0  0  0  0
  7 17  1  0  0  0  0
  7 18  1  0  0  0  0
  9 19  1  0  0  0  0
 10 20  1  0  0  0  0
 10 21  1  0  0  0  0
 11 22  1  0  0  0  0
 11 23  1  0  0  0  0
M  END
> <HYBRID receptor title>
5S18(A) > WOY(A-201)

> <HYBRID receptor filename>
experiments/data/docking/5s18.oedu

> <HYBRID Chemgauss4 score>
-6.321121

> <HYBRID receptor title>
5S18(A) > WOY(A-201)

> <HYBRID receptor filename>
experiments/data/docking/5s18.oedu

> <Dock Type>
Hybrid

$$$$
MOL0053
  -OEChem-07032415493D

 14 14  0     0  0  0  0  0  0999 V2000
   -3.4428   14.4570   -1.2446 C   0  0  0  0  0  0  0  0  0  0  0  0
   -4.9397   14.7377    0.6193 C   0  0  0  0  0  0  0  0  0  0  0  0
   -2.3652   14.6841   -0.4772 C   0  0  0  0  0  0  0  0  0  0  0  0
   -4.7734   14.4831   -0.6834 C   0  0  0  0  0  0  0  0  0  0  0  0
   -2.5445   14.9704    0.9837 C   0  0  0  0  0  0  0  0  0  0  0  0
   -3.8582   14.9749    1.4307 N   0  0  0  0  0  0  0  0  0  0  0  0
   -1.0781   14.6763   -0.9321 N   0  0  0  0  0  0  0  0  0  0  0  0
   -1.5825   15.1847    1.7182 O   0  0  0  0  0  0  0  0  0  0  0  0
   -6.1169   14.1839   -1.7162 Cl  0  0  0  0  0  0  0  0  0  0  0  0
   -3.3327   14.2485   -2.3048 H   0  0  0  0  0  0  0  0  0  0  0  0
   -5.9068   14.7729    1.1059 H   0  0  0  0  0  0  0  0  0  0  0  0
   -4.0402   15.1644    2.4119 H   0  0  0  0  0  0  0  0  0  0  0  0
   -0.9149   14.4907   -1.8973 H   0  0  0  0  0  0  0  0  0  0  0  0
   -0.3428   14.8564   -0.2850 H   0  0  0  0  0  0  0  0  0  0  0  0
  1  3  2  0  0  0  0
  1  4  1  0  0  0  0
  2  4  2  0  0  0  0
  2  6  1  0  0  0  0
  3  5  1  0  0  0  0
  3  7  1  0  0  0  0
  4  9  1  0  0  0  0
  5  6  1  0  0  0  0
  5  8  2  0  0  0  0
  1 10  1  0  0  0  0
  2 11  1  0  0  0  0
  6 12  1  0  0  0  0
  7 13  1  0  0  0  0
  7 14  1  0  0  0  0
M  END
> <HYBRID receptor title>
5S18(A) > WOY(A-201)

> <HYBRID receptor filename>
experiments/data/docking/5s18.oedu

> <HYBRID Chemgauss4 score>
-6.310008

> <HYBRID receptor title>
5S18(A) > WOY(A-201)

> <HYBRID receptor filename>
experiments/data/docking/5s18.oedu

> <Dock Type>
Hybrid

$$$$
MOL0194
  -OEChem-07032415493D

 17 17  0     0  0  0  0  0  0999 V2000
   -2.8906   14.3720   -1.0526 C   0  0  0  0  0  0  0  0  0  0  0  0
   -4.2446   14.2420   -0.5758 C   0  0  0  0  0  0  0  0  0  0  0  0
   -1.8681   14.6776   -0.2371 C   0  0  0  0  0  0  0  0  0  0  0  0
   -4.5199   14.4287    0.7228 C   0  0  0  0  0  0  0  0  0  0  0  0
   -2.1726   14.8879    1.2224 C   0  0  0  0  0  0  0  0  0  0  0  0
   -5.8919   14.3157    1.3050 C   0  0  0  0  0  0  0  0  0  0  0  0
   -3.5000   14.7442    1.5946 N   0  0  0  0  0  0  0  0  0  0  0  0
   -0.5668   14.8157   -0.6177 N   0  0  0  0  0  0  0  0  0  0  0  0
   -1.2807   15.1702    2.0207 O   0  0  0  0  0  0  0  0  0  0  0  0
   -2.7265   14.2103   -2.1138 H   0  0  0  0  0  0  0  0  0  0  0  0
   -5.0161   13.9926   -1.2959 H   0  0  0  0  0  0  0  0  0  0  0  0
   -6.0725   13.2901    1.6251 H   0  0  0  0  0  0  0  0  0  0  0  0
   -6.6342   14.5959    0.5583 H   0  0  0  0  0  0  0  0  0  0  0  0
   -5.9843   14.9825    2.1618 H   0  0  0  0  0  0  0  0  0  0  0  0
   -3.7420   14.8793    2.5722 H   0  0  0  0  0  0  0  0  0  0  0  0
   -0.3321   14.6830   -1.5780 H   0  0  0  0  0  0  0  0  0  0  0  0
    0.1128   15.0454    0.0747 H   0  0  0  0  0  0  0  0  0  0  0  0
  1  2  1  0  0  0  0
  1  3  2  0  0  0  0
  2  4  2  0  0  0  0
  3  5  1  0  0  0  0
  3  8  1  0  0  0  0
  4  6  1  0  0  0  0
  4  7  1  0  0  0  0
  5  7  1  0  0  0  0
  5  9  2  0  0  0  0
  1 10  1  0  0  0  0
  2 11  1  0  0  0  0
  6 12  1  0  0  0  0
  6 13  1  0  0  0  0
  6 14  1  0  0  0  0
  7 15  1  0  0  0  0
  8 16  1  0  0  0  0
  8 17  1  0  0  0  0
M  END
> <HYBRID receptor title>
5S18(A) > WOY(A-201)

> <HYBRID receptor filename>
experiments/data/docking/5s18.oedu

> <HYBRID Chemgauss4 score>
-6.297926

> <HYBRID receptor title>
5S18(A) > WOY(A-201)

> <HYBRID receptor filename>
experiments/data/docking/5s18.oedu

> <Dock Type>
Hybrid

$$$$
MOL0262
  -OEChem-07032415493D

 26 27  0     1  0  0  0  0  0999 V2000
   -4.4085   14.3772   -1.2448 C   0  0  0  0  0  0  0  0  0  0  0  0
   -3.0223   14.9282    0.6761 C   0  0  0  0  0  0  0  0  0  0  0  0
   -3.1576   14.7417   -0.6404 C   0  0  0  0  0  0  0  0  0  0  0  0
   -5.4615   14.2262   -0.4335 C   0  0  0  0  0  0  0  0  0  0  0  0
   -5.3834   14.4191    1.0399 C   0  0  0  0  0  0  0  0  0  0  0  0
   -0.7692   14.6626   -1.1288 C   0  0  0  0  0  0  0  0  0  0  0  0
   -2.2090   15.2448   -2.8507 C   0  0  0  0  0  0  0  0  0  0  0  0
   -0.7754   15.5479   -3.2388 C   0  0  2  0  0  0  0  0  0  0  0  0
   -0.3896   14.9954   -4.5965 C   0  0  0  0  0  0  0  0  0  0  0  0
   -4.1155   14.7698    1.5011 N   0  0  0  0  0  0  0  0  0  0  0  0
   -2.0886   14.8946   -1.4689 N   0  0  0  0  0  0  0  0  0  0  0  0
   -6.7020   13.8803   -0.8994 N   0  0  0  0  0  0  0  0  0  0  0  0
   -6.3580   14.2781    1.7735 O   0  0  0  0  0  0  0  0  0  0  0  0
   -0.3245   14.2770   -0.0558 O   0  0  0  0  0  0  0  0  0  0  0  0
    0.0258   14.9218   -2.2185 O   0  0  0  0  0  0  0  0  0  0  0  0
   -4.4788   14.2338   -2.3174 H   0  0  0  0  0  0  0  0  0  0  0  0
   -2.0955   15.2028    1.1644 H   0  0  0  0  0  0  0  0  0  0  0  0
   -2.8664   16.1092   -2.9912 H   0  0  0  0  0  0  0  0  0  0  0  0
   -2.6206   14.3848   -3.3916 H   0  0  0  0  0  0  0  0  0  0  0  0
   -0.5751   16.6251   -3.1991 H   0  0  0  0  0  0  0  0  0  0  0  0
   -0.5878   13.9223   -4.6396 H   0  0  0  0  0  0  0  0  0  0  0  0
    0.6731   15.1615   -4.7856 H   0  0  0  0  0  0  0  0  0  0  0  0
   -0.9648   15.4880   -5.3844 H   0  0  0  0  0  0  0  0  0  0  0  0
   -3.9903   14.9164    2.4984 H   0  0  0  0  0  0  0  0  0  0  0  0
   -6.8165   13.7379   -1.8767 H   0  0  0  0  0  0  0  0  0  0  0  0
   -7.4427   13.7841   -0.2438 H   0  0  0  0  0  0  0  0  0  0  0  0
  1  3  1  0  0  0  0
  1  4  2  0  0  0  0
  2  3  2  0  0  0  0
  2 10  1  0  0  0  0
  3 11  1  0  0  0  0
  4  5  1  0  0  0  0
  4 12  1  0  0  0  0
  5 10  1  0  0  0  0
  5 13  2  0  0  0  0
  6 11  1  0  0  0  0
  6 14  2  0  0  0  0
  6 15  1  0  0  0  0
  7  8  1  0  0  0  0
  7 11  1  0  0  0  0
  8  9  1  0  0  0  0
  8 15  1  0  0  0  0
  1 16  1  0  0  0  0
  2 17  1  0  0  0  0
  7 18  1  0  0  0  0
  7 19  1  0  0  0  0
  8 20  1  0  0  0  0
  9 21  1  0  0  0  0
  9 22  1  0  0  0  0
  9 23  1  0  0  0  0
 10 24  1  0  0  0  0
 12 25  1  0  0  0  0
 12 26  1  0  0  0  0
M  END
> <HYBRID receptor title>
5S18(A) > WOY(A-201)

> <HYBRID receptor filename>
experiments/data/docking/5s18.oedu

> <HYBRID Chemgauss4 score>
-6.295818

> <HYBRID receptor title>
5S18(A) > WOY(A-201)

> <HYBRID receptor filename>
experiments/data/docking/5s18.oedu

> <Dock Type>
Hybrid

$$$$
MOL0139
  -OEChem-07032415493D

 25 25  0     1  0  0  0  0  0999 V2000
   -3.7961   15.3162   -0.8890 C   0  0  0  0  0  0  0  0  0  0  0  0
   -5.1338   14.8866    1.0559 C   0  0  0  0  0  0  0  0  0  0  0  0
   -5.0887   15.1315   -0.2608 C   0  0  0  0  0  0  0  0  0  0  0  0
   -2.6428   15.2506   -0.2016 C   0  0  0  0  0  0  0  0  0  0  0  0
   -2.7143   14.9746    1.2770 C   0  0  0  0  0  0  0  0  0  0  0  0
   -5.5652   13.3134   -2.5591 C   0  0  0  0  0  0  0  0  0  0  0  0
   -6.3062   15.2258   -1.1242 C   0  0  0  0  0  0  0  0  0  0  0  0
   -5.9871   14.7775   -2.5457 C   0  0  2  0  0  0  0  0  0  0  0  0
   -3.9862   14.8104    1.8008 N   0  0  0  0  0  0  0  0  0  0  0  0
   -1.3978   15.4146   -0.7320 N   0  0  0  0  0  0  0  0  0  0  0  0
   -7.1386   14.8640   -3.4093 N   0  0  0  0  0  0  0  0  0  0  0  0
   -1.6937   14.9031    1.9591 O   0  0  0  0  0  0  0  0  0  0  0  0
   -3.7830   15.5141   -1.9575 H   0  0  0  0  0  0  0  0  0  0  0  0
   -6.0576   14.7370    1.6009 H   0  0  0  0  0  0  0  0  0  0  0  0
   -6.3356   12.6638   -2.1200 H   0  0  0  0  0  0  0  0  0  0  0  0
   -5.3698   12.9241   -3.5684 H   0  0  0  0  0  0  0  0  0  0  0  0
   -4.6547   13.1334   -1.9703 H   0  0  0  0  0  0  0  0  0  0  0  0
   -6.6659   16.2594   -1.0991 H   0  0  0  0  0  0  0  0  0  0  0  0
   -7.0741   14.5830   -0.6817 H   0  0  0  0  0  0  0  0  0  0  0  0
   -5.2048   15.4039   -2.9874 H   0  0  0  0  0  0  0  0  0  0  0  0
   -4.0732   14.6226    2.7953 H   0  0  0  0  0  0  0  0  0  0  0  0
   -1.3141   15.5992   -1.7085 H   0  0  0  0  0  0  0  0  0  0  0  0
   -0.6075   15.3453   -0.1283 H   0  0  0  0  0  0  0  0  0  0  0  0
   -6.8898   14.5599   -4.3533 H   0  0  0  0  0  0  0  0  0  0  0  0
   -7.4327   15.8390   -3.5022 H   0  0  0  0  0  0  0  0  0  0  0  0
  1  3  1  0  0  0  0
  1  4  2  0  0  0  0
  2  3  2  0  0  0  0
  2  9  1  0  0  0  0
  3  7  1  0  0  0  0
  4  5  1  0  0  0  0
  4 10  1  0  0  0  0
  5  9  1  0  0  0  0
  5 12  2  0  0  0  0
  6  8  1  0  0  0  0
  7  8  1  0  0  0  0
  8 11  1  0  0  0  0
  1 13  1  0  0  0  0
  2 14  1  0  0  0  0
  6 15  1  0  0  0  0
  6 16  1  0  0  0  0
  6 17  1  0  0  0  0
  7 18  1  0  0  0  0
  7 19  1  0  0  0  0
  8 20  1  0  0  0  0
  9 21  1  0  0  0  0
 10 22  1  0  0  0  0
 10 23  1  0  0  0  0
 11 24  1  0  0  0  0
 11 25  1  0  0  0  0
M  END
> <HYBRID receptor title>
5S18(A) > WOY(A-201)

> <HYBRID receptor filename>
experiments/data/docking/5s18.oedu

> <HYBRID Chemgauss4 score>
-6.295251

> <HYBRID receptor title>
5S18(A) > WOY(A-201)

> <HYBRID receptor filename>
experiments/data/docking/5s18.oedu

> <Dock Type>
Hybrid

$$$$
MOL0369
  -OEChem-07032415493D

 31 31  0     1  0  0  0  0  0999 V2000
   -1.4085   14.5361   -0.8918 C   0  0  0  0  0  0  0  0  0  0  0  0
   -3.3220   14.4910    0.6087 C   0  0  0  0  0  0  0  0  0  0  0  0
   -0.6017   14.7492    0.1539 C   0  0  0  0  0  0  0  0  0  0  0  0
   -2.8137   14.4061   -0.6245 C   0  0  0  0  0  0  0  0  0  0  0  0
   -1.0986   14.8534    1.5526 C   0  0  0  0  0  0  0  0  0  0  0  0
   -2.0202   12.5802   -4.7946 C   0  0  0  0  0  0  0  0  0  0  0  0
   -2.6228   12.6809   -3.4005 C   0  0  0  0  0  0  0  0  0  0  0  0
   -3.0708   14.0957   -3.0533 C   0  0  0  0  0  0  0  0  0  0  0  0
   -5.0122   13.7959   -1.5495 C   0  0  0  0  0  0  0  0  0  0  0  0
   -5.8618   15.0351   -1.4594 C   0  0  0  0  0  0  0  0  0  0  0  0
   -2.4796   14.7106    1.6777 N   0  0  0  0  0  0  0  0  0  0  0  0
    0.7538   14.8888    0.0172 N   0  0  0  0  0  0  0  0  0  0  0  0
   -3.6218   14.1878   -1.7114 N   0  0  3  0  0  0  0  0  0  0  0  0
   -0.3470   15.0484    2.5039 O   0  0  0  0  0  0  0  0  0  0  0  0
   -7.1686   14.7257   -1.3186 F   0  0  0  0  0  0  0  0  0  0  0  0
   -5.4981   15.8056   -0.4119 F   0  0  0  0  0  0  0  0  0  0  0  0
   -5.7349   15.7803   -2.5801 F   0  0  0  0  0  0  0  0  0  0  0  0
   -1.0318   14.4624   -1.9061 H   0  0  0  0  0  0  0  0  0  0  0  0
   -4.3748   14.3980    0.8446 H   0  0  0  0  0  0  0  0  0  0  0  0
   -1.1721   13.2658   -4.8884 H   0  0  0  0  0  0  0  0  0  0  0  0
   -2.7566   12.8449   -5.5601 H   0  0  0  0  0  0  0  0  0  0  0  0
   -1.6580   11.5682   -5.0009 H   0  0  0  0  0  0  0  0  0  0  0  0
   -3.4696   11.9888   -3.3238 H   0  0  0  0  0  0  0  0  0  0  0  0
   -1.8723   12.3573   -2.6699 H   0  0  0  0  0  0  0  0  0  0  0  0
   -3.8312   14.4553   -3.7535 H   0  0  0  0  0  0  0  0  0  0  0  0
   -2.2171   14.7795   -3.0960 H   0  0  0  0  0  0  0  0  0  0  0  0
   -5.3032   13.1827   -2.4068 H   0  0  0  0  0  0  0  0  0  0  0  0
   -5.1006   13.1935   -0.6407 H   0  0  0  0  0  0  0  0  0  0  0  0
   -2.8870   14.7716    2.6062 H   0  0  0  0  0  0  0  0  0  0  0  0
    1.1452   14.8285   -0.8947 H   0  0  0  0  0  0  0  0  0  0  0  0
    1.2971   15.0454    0.8346 H   0  0  0  0  0  0  0  0  0  0  0  0
  1  3  2  0  0  0  0
  1  4  1  0  0  0  0
  2  4  2  0  0  0  0
  2 11  1  0  0  0  0
  3  5  1  0  0  0  0
  3 12  1  0  0  0  0
  4 13  1  0  0  0  0
  5 11  1  0  0  0  0
  5 14  2  0  0  0  0
  6  7  1  0  0  0  0
  7  8  1  0  0  0  0
  8 13  1  0  0  0  0
  9 10  1  0  0  0  0
  9 13  1  0  0  0  0
 10 15  1  0  0  0  0
 10 16  1  0  0  0  0
 10 17  1  0  0  0  0
  1 18  1  0  0  0  0
  2 19  1  0  0  0  0
  6 20  1  0  0  0  0
  6 21  1  0  0  0  0
  6 22  1  0  0  0  0
  7 23  1  0  0  0  0
  7 24  1  0  0  0  0
  8 25  1  0  0  0  0
  8 26  1  0  0  0  0
  9 27  1  0  0  0  0
  9 28  1  0  0  0  0
 11 29  1  0  0  0  0
 12 30  1  0  0  0  0
 12 31  1  0  0  0  0
M  END
> <HYBRID receptor title>
5S18(A) > WOY(A-201)

> <HYBRID receptor filename>
experiments/data/docking/5s18.oedu

> <HYBRID Chemgauss4 score>
-6.294385

> <HYBRID receptor title>
5S18(A) > WOY(A-201)

> <HYBRID receptor filename>
experiments/data/docking/5s18.oedu

> <Dock Type>
Hybrid

$$$$
MOL0162
  -OEChem-07032415493D

 28 28  0     1  0  0  0  0  0999 V2000
   -1.8693   14.8217   -1.3827 C   0  0  0  0  0  0  0  0  0  0  0  0
    0.4524   14.2166   -1.3759 C   0  0  0  0  0  0  0  0  0  0  0  0
   -0.6834   14.3564   -2.0731 C   0  0  0  0  0  0  0  0  0  0  0  0
   -1.8724   15.1181   -0.0715 C   0  0  0  0  0  0  0  0  0  0  0  0
   -0.5864   14.9543    0.6946 C   0  0  0  0  0  0  0  0  0  0  0  0
   -6.4536   14.7158   -0.6718 C   0  0  0  0  0  0  0  0  0  0  0  0
   -4.2513   15.7670    0.0504 C   0  0  0  0  0  0  0  0  0  0  0  0
   -5.0746   14.4820   -0.0628 C   0  0  1  0  0  0  0  0  0  0  0  0
   -0.7963   14.0570   -3.5340 C   0  0  0  0  0  0  0  0  0  0  0  0
    0.5008   14.5054   -0.0373 N   0  0  0  0  0  0  0  0  0  0  0  0
   -5.1915   13.8308    1.2202 N   0  0  0  0  0  0  0  0  0  0  0  0
   -2.9514   15.5592    0.6350 N   0  0  0  0  0  0  0  0  0  0  0  0
   -0.5268   15.2095    1.8960 O   0  0  0  0  0  0  0  0  0  0  0  0
   -2.0498   14.2840   -3.9802 F   0  0  0  0  0  0  0  0  0  0  0  0
    0.0437   14.8264   -4.2576 F   0  0  0  0  0  0  0  0  0  0  0  0
   -0.4953   12.7662   -3.7896 F   0  0  0  0  0  0  0  0  0  0  0  0
   -2.7792   14.9275   -1.9673 H   0  0  0  0  0  0  0  0  0  0  0  0
    1.3811   13.8748   -1.8159 H   0  0  0  0  0  0  0  0  0  0  0  0
   -7.0327   15.4114   -0.0553 H   0  0  0  0  0  0  0  0  0  0  0  0
   -7.0297   13.7866   -0.7380 H   0  0  0  0  0  0  0  0  0  0  0  0
   -6.3708   15.1426   -1.6764 H   0  0  0  0  0  0  0  0  0  0  0  0
   -4.0963   16.2151   -0.9369 H   0  0  0  0  0  0  0  0  0  0  0  0
   -4.7683   16.5013    0.6781 H   0  0  0  0  0  0  0  0  0  0  0  0
   -4.5280   13.7833   -0.7063 H   0  0  0  0  0  0  0  0  0  0  0  0
    1.3855   14.3831    0.4467 H   0  0  0  0  0  0  0  0  0  0  0  0
   -4.2622   13.6060    1.5811 H   0  0  0  0  0  0  0  0  0  0  0  0
   -5.6710   12.9346    1.1125 H   0  0  0  0  0  0  0  0  0  0  0  0
   -2.8277   15.7454    1.6164 H   0  0  0  0  0  0  0  0  0  0  0  0
  1  3  1  0  0  0  0
  1  4  2  0  0  0  0
  2  3  2  0  0  0  0
  2 10  1  0  0  0  0
  3  9  1  0  0  0  0
  4  5  1  0  0  0  0
  4 12  1  0  0  0  0
  5 10  1  0  0  0  0
  5 13  2  0  0  0  0
  6  8  1  0  0  0  0
  7  8  1  0  0  0  0
  7 12  1  0  0  0  0
  8 11  1  0  0  0  0
  9 14  1  0  0  0  0
  9 15  1  0  0  0  0
  9 16  1  0  0  0  0
  1 17  1  0  0  0  0
  2 18  1  0  0  0  0
  6 19  1  0  0  0  0
  6 20  1  0  0  0  0
  6 21  1  0  0  0  0
  7 22  1  0  0  0  0
  7 23  1  0  0  0  0
  8 24  1  0  0  0  0
 10 25  1  0  0  0  0
 11 26  1  0  0  0  0
 11 27  1  0  0  0  0
 12 28  1  0  0  0  0
M  END
> <HYBRID receptor title>
5S18(A) > WOY(A-201)

> <HYBRID receptor filename>
experiments/data/docking/5s18.oedu

> <HYBRID Chemgauss4 score>
-6.292417

> <HYBRID receptor title>
5S18(A) > WOY(A-201)

> <HYBRID receptor filename>
experiments/data/docking/5s18.oedu

> <Dock Type>
Hybrid

$$$$
MOL0043
  -OEChem-07032415493D

 29 30  0     0  0  0  0  0  0999 V2000
   -2.4420   14.9381   -1.0054 C   0  0  0  0  0  0  0  0  0  0  0  0
   -3.6994   13.3711   -3.3350 C   0  0  0  0  0  0  0  0  0  0  0  0
   -4.2411   14.8980    0.5815 C   0  0  0  0  0  0  0  0  0  0  0  0
   -5.8518   12.8639   -2.4041 C   0  0  0  0  0  0  0  0  0  0  0  0
   -3.8585   14.9627   -0.7011 C   0  0  0  0  0  0  0  0  0  0  0  0
   -4.8388   13.7339   -2.5166 C   0  0  0  0  0  0  0  0  0  0  0  0
   -1.4994   14.8527   -0.0509 C   0  0  0  0  0  0  0  0  0  0  0  0
   -3.6212   12.1968   -3.9846 C   0  0  0  0  0  0  0  0  0  0  0  0
   -1.9493   14.7812    1.3843 C   0  0  0  0  0  0  0  0  0  0  0  0
   -4.7694   11.2326   -3.8456 C   0  0  0  0  0  0  0  0  0  0  0  0
   -4.8183   15.0595   -1.8440 C   0  0  0  0  0  0  0  0  0  0  0  0
   -3.3188   14.8103    1.5911 N   0  0  0  0  0  0  0  0  0  0  0  0
   -5.8196   11.6538   -3.0463 N   0  0  0  0  0  0  0  0  0  0  0  0
   -0.1544   14.8252   -0.2707 N   0  0  0  0  0  0  0  0  0  0  0  0
   -2.5800   11.7966   -4.7682 N   0  0  0  0  0  0  0  0  0  0  0  0
   -1.1341   14.7019    2.3015 O   0  0  0  0  0  0  0  0  0  0  0  0
   -4.7555   10.1432   -4.4157 O   0  0  0  0  0  0  0  0  0  0  0  0
   -2.1544   14.9920   -2.0520 H   0  0  0  0  0  0  0  0  0  0  0  0
   -2.8893   14.0913   -3.4119 H   0  0  0  0  0  0  0  0  0  0  0  0
   -5.2781   14.9108    0.8933 H   0  0  0  0  0  0  0  0  0  0  0  0
   -6.7382   13.0577   -1.8129 H   0  0  0  0  0  0  0  0  0  0  0  0
   -4.4824   15.8162   -2.5513 H   0  0  0  0  0  0  0  0  0  0  0  0
   -5.8139   15.3024   -1.4758 H   0  0  0  0  0  0  0  0  0  0  0  0
   -3.6592   14.7638    2.5471 H   0  0  0  0  0  0  0  0  0  0  0  0
   -6.6120   11.0291   -2.9295 H   0  0  0  0  0  0  0  0  0  0  0  0
    0.1781   14.8712   -1.2098 H   0  0  0  0  0  0  0  0  0  0  0  0
    0.4574   14.7600    0.5137 H   0  0  0  0  0  0  0  0  0  0  0  0
   -1.8026   12.4109   -4.8816 H   0  0  0  0  0  0  0  0  0  0  0  0
   -2.6260   10.9015   -5.2047 H   0  0  0  0  0  0  0  0  0  0  0  0
  1  5  1  0  0  0  0
  1  7  2  0  0  0  0
  2  6  1  0  0  0  0
  2  8  2  0  0  0  0
  3  5  2  0  0  0  0
  3 12  1  0  0  0  0
  4  6  2  0  0  0  0
  4 13  1  0  0  0  0
  5 11  1  0  0  0  0
  6 11  1  0  0  0  0
  7  9  1  0  0  0  0
  7 14  1  0  0  0  0
  8 10  1  0  0  0  0
  8 15  1  0  0  0  0
  9 12  1  0  0  0  0
  9 16  2  0  0  0  0
 10 13  1  0  0  0  0
 10 17  2  0  0  0  0
  1 18  1  0  0  0  0
  2 19  1  0  0  0  0
  3 20  1  0  0  0  0
  4 21  1  0  0  0  0
 11 22  1  0  0  0  0
 11 23  1  0  0  0  0
 12 24  1  0  0  0  0
 13 25  1  0  0  0  0
 14 26  1  0  0  0  0
 14 27  1  0  0  0  0
 15 28  1  0  0  0  0
 15 29  1  0  0  0  0
M  END
> <HYBRID receptor title>
5S18(A) > WOY(A-201)

> <HYBRID receptor filename>
experiments/data/docking/5s18.oedu

> <HYBRID Chemgauss4 score>
-6.291262

> <HYBRID receptor title>
5S18(A) > WOY(A-201)

> <HYBRID receptor filename>
experiments/data/docking/5s18.oedu

> <Dock Type>
Hybrid

$$$$
MOL0255
  -OEChem-07032415493D

 24 24  0     0  0  0  0  0  0999 V2000
   -2.9283   14.8846   -0.9169 C   0  0  0  0  0  0  0  0  0  0  0  0
   -4.5481   14.6433    0.8366 C   0  0  0  0  0  0  0  0  0  0  0  0
   -4.2953   14.6878   -0.4787 C   0  0  0  0  0  0  0  0  0  0  0  0
   -1.9062   15.0235   -0.0549 C   0  0  0  0  0  0  0  0  0  0  0  0
   -2.2105   14.9708    1.4189 C   0  0  0  0  0  0  0  0  0  0  0  0
   -7.2218   14.4633   -3.7165 C   0  0  0  0  0  0  0  0  0  0  0  0
   -5.0755   13.3492   -2.4249 C   0  0  0  0  0  0  0  0  0  0  0  0
   -5.3525   14.5449   -1.5268 C   0  0  0  0  0  0  0  0  0  0  0  0
   -3.5407   14.7800    1.7554 N   0  0  0  0  0  0  0  0  0  0  0  0
   -0.6014   15.2107   -0.4020 N   0  0  0  0  0  0  0  0  0  0  0  0
   -1.3177   15.0916    2.2557 O   0  0  0  0  0  0  0  0  0  0  0  0
   -5.4107   15.6784   -2.2717 F   0  0  0  0  0  0  0  0  0  0  0  0
   -6.5655   14.4052   -0.9331 F   0  0  0  0  0  0  0  0  0  0  0  0
   -6.5840   12.8256   -3.2975 S   0  0  0  0  0  0  0  0  0  0  0  0
   -2.7463   14.9179   -1.9877 H   0  0  0  0  0  0  0  0  0  0  0  0
   -5.5403   14.4999    1.2462 H   0  0  0  0  0  0  0  0  0  0  0  0
   -8.1614   14.3666   -4.2662 H   0  0  0  0  0  0  0  0  0  0  0  0
   -7.3990   15.0370   -2.8037 H   0  0  0  0  0  0  0  0  0  0  0  0
   -6.4978   14.9958   -4.3386 H   0  0  0  0  0  0  0  0  0  0  0  0
   -4.3233   13.5941   -3.1819 H   0  0  0  0  0  0  0  0  0  0  0  0
   -4.7180   12.4952   -1.8403 H   0  0  0  0  0  0  0  0  0  0  0  0
   -3.7836   14.7391    2.7409 H   0  0  0  0  0  0  0  0  0  0  0  0
   -0.3647   15.2510   -1.3700 H   0  0  0  0  0  0  0  0  0  0  0  0
    0.0780   15.3021    0.3218 H   0  0  0  0  0  0  0  0  0  0  0  0
  1  3  1  0  0  0  0
  1  4  2  0  0  0  0
  2  3  2  0  0  0  0
  2  9  1  0  0  0  0
  3  8  1  0  0  0  0
  4  5  1  0  0  0  0
  4 10  1  0  0  0  0
  5  9  1  0  0  0  0
  5 11  2  0  0  0  0
  6 14  1  0  0  0  0
  7  8  1  0  0  0  0
  7 14  1  0  0  0  0
  8 12  1  0  0  0  0
  8 13  1  0  0  0  0
  1 15  1  0  0  0  0
  2 16  1  0  0  0  0
  6 17  1  0  0  0  0
  6 18  1  0  0  0  0
  6 19  1  0  0  0  0
  7 20  1  0  0  0  0
  7 21  1  0  0  0  0
  9 22  1  0  0  0  0
 10 23  1  0  0  0  0
 10 24  1  0  0  0  0
M  END
> <HYBRID receptor title>
5S18(A) > WOY(A-201)

> <HYBRID receptor filename>
experiments/data/docking/5s18.oedu

> <HYBRID Chemgauss4 score>
-6.287888

> <HYBRID receptor title>
5S18(A) > WOY(A-201)

> <HYBRID receptor filename>
experiments/data/docking/5s18.oedu

> <Dock Type>
Hybrid

$$$$
MOL0057
  -OEChem-07032415493D

 16 16  0     0  0  0  0  0  0999 V2000
   -3.6219   14.8186    0.2569 C   0  0  0  0  0  0  0  0  0  0  0  0
   -2.9959   14.5545   -0.8979 C   0  0  0  0  0  0  0  0  0  0  0  0
   -0.9161   14.4288    0.0952 C   0  0  0  0  0  0  0  0  0  0  0  0
   -1.5491   14.7246    1.4475 C   0  0  0  0  0  0  0  0  0  0  0  0
   -3.7493   14.4546   -2.1904 C   0  0  0  0  0  0  0  0  0  0  0  0
   -1.6382   14.3575   -0.9890 N   0  0  0  0  0  0  0  0  0  0  0  0
   -2.9122   14.9034    1.4165 N   0  0  0  0  0  0  0  0  0  0  0  0
    0.4434   14.2457    0.0936 N   0  0  0  0  0  0  0  0  0  0  0  0
   -0.8390   14.7838    2.4406 O   0  0  0  0  0  0  0  0  0  0  0  0
   -5.0674   14.6621   -1.9964 F   0  0  0  0  0  0  0  0  0  0  0  0
   -3.3119   15.3689   -3.0793 F   0  0  0  0  0  0  0  0  0  0  0  0
   -3.5981   13.2338   -2.7428 F   0  0  0  0  0  0  0  0  0  0  0  0
   -4.6899   14.9754    0.3405 H   0  0  0  0  0  0  0  0  0  0  0  0
   -3.4033   15.1044    2.2821 H   0  0  0  0  0  0  0  0  0  0  0  0
    0.9280   14.3151    0.9578 H   0  0  0  0  0  0  0  0  0  0  0  0
    0.8903   14.0508   -0.7712 H   0  0  0  0  0  0  0  0  0  0  0  0
  1  2  2  0  0  0  0
  1  7  1  0  0  0  0
  2  5  1  0  0  0  0
  2  6  1  0  0  0  0
  3  4  1  0  0  0  0
  3  6  2  0  0  0  0
  3  8  1  0  0  0  0
  4  7  1  0  0  0  0
  4  9  2  0  0  0  0
  5 10  1  0  0  0  0
  5 11  1  0  0  0  0
  5 12  1  0  0  0  0
  1 13  1  0  0  0  0
  7 14  1  0  0  0  0
  8 15  1  0  0  0  0
  8 16  1  0  0  0  0
M  END
> <HYBRID receptor title>
5S18(A) > WOY(A-201)

> <HYBRID receptor filename>
experiments/data/docking/5s18.oedu

> <HYBRID Chemgauss4 score>
-6.287191

> <HYBRID receptor title>
5S18(A) > WOY(A-201)

> <HYBRID receptor filename>
experiments/data/docking/5s18.oedu

> <Dock Type>
Hybrid

$$$$
MOL0104
  -OEChem-07032415493D

 17 17  0     0  0  0  0  0  0999 V2000
   -3.0143   14.4426   -1.1303 C   0  0  0  0  0  0  0  0  0  0  0  0
   -4.5683   14.6014    0.6992 C   0  0  0  0  0  0  0  0  0  0  0  0
   -4.3599   14.4458   -0.6122 C   0  0  0  0  0  0  0  0  0  0  0  0
   -1.9438   14.5933   -0.3302 C   0  0  0  0  0  0  0  0  0  0  0  0
   -2.1829   14.7691    1.1484 C   0  0  0  0  0  0  0  0  0  0  0  0
   -5.5186   14.2812   -1.4897 C   0  0  0  0  0  0  0  0  0  0  0  0
   -3.5084   14.7589    1.5553 N   0  0  0  0  0  0  0  0  0  0  0  0
   -0.6448   14.6013   -0.7433 N   0  0  0  0  0  0  0  0  0  0  0  0
   -1.2436   14.9116    1.9292 O   0  0  0  0  0  0  0  0  0  0  0  0
   -6.5725   13.7683   -1.1547 O   0  0  0  0  0  0  0  0  0  0  0  0
   -5.2380   14.7809   -2.7118 O   0  0  0  0  0  0  0  0  0  0  0  0
   -2.8841   14.3136   -2.2010 H   0  0  0  0  0  0  0  0  0  0  0  0
   -5.5481   14.6141    1.1608 H   0  0  0  0  0  0  0  0  0  0  0  0
   -3.7168   14.8740    2.5428 H   0  0  0  0  0  0  0  0  0  0  0  0
   -0.4509   14.4876   -1.7149 H   0  0  0  0  0  0  0  0  0  0  0  0
    0.0732   14.7206   -0.0622 H   0  0  0  0  0  0  0  0  0  0  0  0
   -5.9940   14.6883   -3.3303 H   0  0  0  0  0  0  0  0  0  0  0  0
  1  3  1  0  0  0  0
  1  4  2  0  0  0  0
  2  3  2  0  0  0  0
  2  7  1  0  0  0  0
  3  6  1  0  0  0  0
  4  5  1  0  0  0  0
  4  8  1  0  0  0  0
  5  7  1  0  0  0  0
  5  9  2  0  0  0  0
  6 10  2  0  0  0  0
  6 11  1  0  0  0  0
  1 12  1  0  0  0  0
  2 13  1  0  0  0  0
  7 14  1  0  0  0  0
  8 15  1  0  0  0  0
  8 16  1  0  0  0  0
 11 17  1  0  0  0  0
M  END
> <HYBRID receptor title>
5S18(A) > WOY(A-201)

> <HYBRID receptor filename>
experiments/data/docking/5s18.oedu

> <HYBRID Chemgauss4 score>
-6.280839

> <HYBRID receptor title>
5S18(A) > WOY(A-201)

> <HYBRID receptor filename>
experiments/data/docking/5s18.oedu

> <Dock Type>
Hybrid

$$$$
MOL0265
  -OEChem-07032415493D

 22 23  0     0  0  0  0  0  0999 V2000
   -4.8401   13.4950   -2.7539 C   0  0  0  0  0  0  0  0  0  0  0  0
   -2.7910   14.6268   -1.0115 C   0  0  0  0  0  0  0  0  0  0  0  0
   -4.2917   14.3320    0.8371 C   0  0  0  0  0  0  0  0  0  0  0  0
   -4.1134   14.3442   -0.4909 C   0  0  0  0  0  0  0  0  0  0  0  0
   -1.7384   14.8762   -0.2134 C   0  0  0  0  0  0  0  0  0  0  0  0
   -1.9590   14.8580    1.2760 C   0  0  0  0  0  0  0  0  0  0  0  0
   -6.3122   15.0861   -1.4911 C   0  0  0  0  0  0  0  0  0  0  0  0
   -6.5271   13.7225   -0.9107 C   0  0  0  0  0  0  0  0  0  0  0  0
   -5.1784   14.0878   -1.4846 C   0  0  0  0  0  0  0  0  0  0  0  0
   -4.5669   13.0173   -3.7758 N   0  0  0  0  0  0  0  0  0  0  0  0
   -3.2506   14.5803    1.6929 N   0  0  0  0  0  0  0  0  0  0  0  0
   -0.4723   15.1479   -0.6391 N   0  0  0  0  0  0  0  0  0  0  0  0
   -1.0351   15.0790    2.0569 O   0  0  0  0  0  0  0  0  0  0  0  0
   -2.6654   14.6325   -2.0912 H   0  0  0  0  0  0  0  0  0  0  0  0
   -5.2471   14.1301    1.3057 H   0  0  0  0  0  0  0  0  0  0  0  0
   -6.8030   15.3146   -2.4310 H   0  0  0  0  0  0  0  0  0  0  0  0
   -6.2887   15.9246   -0.8036 H   0  0  0  0  0  0  0  0  0  0  0  0
   -6.6469   13.6486    0.1648 H   0  0  0  0  0  0  0  0  0  0  0  0
   -7.1614   13.0369   -1.4618 H   0  0  0  0  0  0  0  0  0  0  0  0
   -3.4473   14.5573    2.6892 H   0  0  0  0  0  0  0  0  0  0  0  0
   -0.2911   15.1681   -1.6196 H   0  0  0  0  0  0  0  0  0  0  0  0
    0.2353   15.3185    0.0420 H   0  0  0  0  0  0  0  0  0  0  0  0
  1  9  1  0  0  0  0
  1 10  3  0  0  0  0
  2  4  1  0  0  0  0
  2  5  2  0  0  0  0
  3  4  2  0  0  0  0
  3 11  1  0  0  0  0
  4  9  1  0  0  0  0
  5  6  1  0  0  0  0
  5 12  1  0  0  0  0
  6 11  1  0  0  0  0
  6 13  2  0  0  0  0
  7  8  1  0  0  0  0
  7  9  1  0  0  0  0
  8  9  1  0  0  0  0
  2 14  1  0  0  0  0
  3 15  1  0  0  0  0
  7 16  1  0  0  0  0
  7 17  1  0  0  0  0
  8 18  1  0  0  0  0
  8 19  1  0  0  0  0
 11 20  1  0  0  0  0
 12 21  1  0  0  0  0
 12 22  1  0  0  0  0
M  END
> <HYBRID receptor title>
5S18(A) > WOY(A-201)

> <HYBRID receptor filename>
experiments/data/docking/5s18.oedu

> <HYBRID Chemgauss4 score>
-6.276872

> <HYBRID receptor title>
5S18(A) > WOY(A-201)

> <HYBRID receptor filename>
experiments/data/docking/5s18.oedu

> <Dock Type>
Hybrid

$$$$
MOL0250
  -OEChem-07032415493D

 23 24  0     0  0  0  0  0  0999 V2000
   -2.7224   14.9307   -1.0782 C   0  0  0  0  0  0  0  0  0  0  0  0
   -4.4499   14.9919    0.6326 C   0  0  0  0  0  0  0  0  0  0  0  0
   -4.0938   14.9901   -0.6556 C   0  0  0  0  0  0  0  0  0  0  0  0
   -1.7874   14.8752   -0.1230 C   0  0  0  0  0  0  0  0  0  0  0  0
   -2.1119   14.8724    1.3292 C   0  0  0  0  0  0  0  0  0  0  0  0
   -6.3892   15.1324   -3.1345 C   0  0  0  0  0  0  0  0  0  0  0  0
   -5.7099   14.0194   -2.3259 C   0  0  0  0  0  0  0  0  0  0  0  0
   -5.8555   16.1021   -2.0715 C   0  0  0  0  0  0  0  0  0  0  0  0
   -3.4765   14.9341    1.6072 N   0  0  0  0  0  0  0  0  0  0  0  0
   -5.0352   15.0461   -1.6520 N   0  0  0  0  0  0  0  0  0  0  0  0
   -0.4495   14.8159   -0.4095 N   0  0  0  0  0  0  0  0  0  0  0  0
   -1.2438   14.8203    2.1962 O   0  0  0  0  0  0  0  0  0  0  0  0
   -2.4707   14.9318   -2.1332 H   0  0  0  0  0  0  0  0  0  0  0  0
   -5.4730   15.0361    0.9848 H   0  0  0  0  0  0  0  0  0  0  0  0
   -5.9658   15.2837   -4.1334 H   0  0  0  0  0  0  0  0  0  0  0  0
   -7.4780   15.0651   -3.2063 H   0  0  0  0  0  0  0  0  0  0  0  0
   -6.3727   13.4457   -1.6713 H   0  0  0  0  0  0  0  0  0  0  0  0
   -5.0563   13.3547   -2.8954 H   0  0  0  0  0  0  0  0  0  0  0  0
   -5.3087   16.9669   -2.4546 H   0  0  0  0  0  0  0  0  0  0  0  0
   -6.5799   16.4058   -1.3100 H   0  0  0  0  0  0  0  0  0  0  0  0
   -3.7693   14.9366    2.5798 H   0  0  0  0  0  0  0  0  0  0  0  0
   -0.1706   14.8145   -1.3639 H   0  0  0  0  0  0  0  0  0  0  0  0
    0.1941   14.7765    0.3468 H   0  0  0  0  0  0  0  0  0  0  0  0
  1  3  1  0  0  0  0
  1  4  2  0  0  0  0
  2  3  2  0  0  0  0
  2  9  1  0  0  0  0
  3 10  1  0  0  0  0
  4  5  1  0  0  0  0
  4 11  1  0  0  0  0
  5  9  1  0  0  0  0
  5 12  2  0  0  0  0
  6  7  1  0  0  0  0
  6  8  1  0  0  0  0
  7 10  1  0  0  0  0
  8 10  1  0  0  0  0
  1 13  1  0  0  0  0
  2 14  1  0  0  0  0
  6 15  1  0  0  0  0
  6 16  1  0  0  0  0
  7 17  1  0  0  0  0
  7 18  1  0  0  0  0
  8 19  1  0  0  0  0
  8 20  1  0  0  0  0
  9 21  1  0  0  0  0
 11 22  1  0  0  0  0
 11 23  1  0  0  0  0
M  END
> <HYBRID receptor title>
5S18(A) > WOY(A-201)

> <HYBRID receptor filename>
experiments/data/docking/5s18.oedu

> <HYBRID Chemgauss4 score>
-6.274847

> <HYBRID receptor title>
5S18(A) > WOY(A-201)

> <HYBRID receptor filename>
experiments/data/docking/5s18.oedu

> <Dock Type>
Hybrid

$$$$
MOL0293
  -OEChem-07032415493D

 23 23  0     0  0  0  0  0  0999 V2000
   -0.9726   14.6026   -0.9317 C   0  0  0  0  0  0  0  0  0  0  0  0
   -2.3870   14.9377   -0.9728 C   0  0  0  0  0  0  0  0  0  0  0  0
   -0.2880   14.4400    0.2113 C   0  0  0  0  0  0  0  0  0  0  0  0
   -3.0527   15.0872    0.1907 C   0  0  0  0  0  0  0  0  0  0  0  0
   -1.0335   14.6152    1.5004 C   0  0  0  0  0  0  0  0  0  0  0  0
   -2.9579   15.0961   -2.3526 C   0  0  0  0  0  0  0  0  0  0  0  0
   -4.5101   15.4114    0.3446 C   0  0  0  0  0  0  0  0  0  0  0  0
   -5.3616   14.1732    0.4045 C   0  0  0  0  0  0  0  0  0  0  0  0
   -2.3761   14.9272    1.3849 N   0  0  0  0  0  0  0  0  0  0  0  0
    1.0350   14.1270    0.3046 N   0  0  0  0  0  0  0  0  0  0  0  0
   -0.4670   14.4840    2.5841 O   0  0  0  0  0  0  0  0  0  0  0  0
   -2.0116   14.8884   -3.2892 F   0  0  0  0  0  0  0  0  0  0  0  0
   -3.9560   14.2167   -2.5666 F   0  0  0  0  0  0  0  0  0  0  0  0
   -3.4521   16.3377   -2.5272 F   0  0  0  0  0  0  0  0  0  0  0  0
   -4.9198   16.1831   -0.6914 F   0  0  0  0  0  0  0  0  0  0  0  0
   -4.7013   16.1379    1.4725 F   0  0  0  0  0  0  0  0  0  0  0  0
   -4.9939   13.4091    1.4566 F   0  0  0  0  0  0  0  0  0  0  0  0
   -5.2320   13.4237   -0.7105 F   0  0  0  0  0  0  0  0  0  0  0  0
   -6.6694   14.4734    0.5552 F   0  0  0  0  0  0  0  0  0  0  0  0
   -0.4622   14.4814   -1.8841 H   0  0  0  0  0  0  0  0  0  0  0  0
   -2.9079   15.0486    2.2425 H   0  0  0  0  0  0  0  0  0  0  0  0
    1.5584   14.0038   -0.5356 H   0  0  0  0  0  0  0  0  0  0  0  0
    1.4417   14.0304    1.2098 H   0  0  0  0  0  0  0  0  0  0  0  0
  1  2  1  0  0  0  0
  1  3  2  0  0  0  0
  2  4  2  0  0  0  0
  2  6  1  0  0  0  0
  3  5  1  0  0  0  0
  3 10  1  0  0  0  0
  4  7  1  0  0  0  0
  4  9  1  0  0  0  0
  5  9  1  0  0  0  0
  5 11  2  0  0  0  0
  6 12  1  0  0  0  0
  6 13  1  0  0  0  0
  6 14  1  0  0  0  0
  7  8  1  0  0  0  0
  7 15  1  0  0  0  0
  7 16  1  0  0  0  0
  8 17  1  0  0  0  0
  8 18  1  0  0  0  0
  8 19  1  0  0  0  0
  1 20  1  0  0  0  0
  9 21  1  0  0  0  0
 10 22  1  0  0  0  0
 10 23  1  0  0  0  0
M  END
> <HYBRID receptor title>
5S18(A) > WOY(A-201)

> <HYBRID receptor filename>
experiments/data/docking/5s18.oedu

> <HYBRID Chemgauss4 score>
-6.253807

> <HYBRID receptor title>
5S18(A) > WOY(A-201)

> <HYBRID receptor filename>
experiments/data/docking/5s18.oedu

> <Dock Type>
Hybrid

$$$$
MOL0192
  -OEChem-07032415493D

 18 18  0     0  0  0  0  0  0999 V2000
   -2.1967   14.9222   -0.8334 C   0  0  0  0  0  0  0  0  0  0  0  0
   -4.0641   15.1851    0.6613 C   0  0  0  0  0  0  0  0  0  0  0  0
   -1.3128   14.8212    0.1755 C   0  0  0  0  0  0  0  0  0  0  0  0
   -3.6083   15.1090   -0.5926 C   0  0  0  0  0  0  0  0  0  0  0  0
   -1.8334   14.9084    1.5885 C   0  0  0  0  0  0  0  0  0  0  0  0
   -4.8711   13.9305   -2.1197 C   0  0  0  0  0  0  0  0  0  0  0  0
   -3.2016   15.0880    1.7221 N   0  0  0  0  0  0  0  0  0  0  0  0
    0.0311   14.6445    0.0301 N   0  0  0  0  0  0  0  0  0  0  0  0
   -1.0714   14.8228    2.5501 O   0  0  0  0  0  0  0  0  0  0  0  0
   -4.4001   15.1979   -1.7103 O   0  0  0  0  0  0  0  0  0  0  0  0
   -5.5954   13.4021   -1.1087 F   0  0  0  0  0  0  0  0  0  0  0  0
   -3.8479   13.0914   -2.3920 F   0  0  0  0  0  0  0  0  0  0  0  0
   -5.6691   14.0306   -3.2046 F   0  0  0  0  0  0  0  0  0  0  0  0
   -1.8640   14.8642   -1.8659 H   0  0  0  0  0  0  0  0  0  0  0  0
   -5.1087   15.3247    0.9091 H   0  0  0  0  0  0  0  0  0  0  0  0
   -3.5869   15.1512    2.6598 H   0  0  0  0  0  0  0  0  0  0  0  0
    0.4087   14.5827   -0.8908 H   0  0  0  0  0  0  0  0  0  0  0  0
    0.5968   14.5823    0.8486 H   0  0  0  0  0  0  0  0  0  0  0  0
  1  3  2  0  0  0  0
  1  4  1  0  0  0  0
  2  4  2  0  0  0  0
  2  7  1  0  0  0  0
  3  5  1  0  0  0  0
  3  8  1  0  0  0  0
  4 10  1  0  0  0  0
  5  7  1  0  0  0  0
  5  9  2  0  0  0  0
  6 10  1  0  0  0  0
  6 11  1  0  0  0  0
  6 12  1  0  0  0  0
  6 13  1  0  0  0  0
  1 14  1  0  0  0  0
  2 15  1  0  0  0  0
  7 16  1  0  0  0  0
  8 17  1  0  0  0  0
  8 18  1  0  0  0  0
M  END
> <HYBRID receptor title>
5S18(A) > WOY(A-201)

> <HYBRID receptor filename>
experiments/data/docking/5s18.oedu

> <HYBRID Chemgauss4 score>
-6.245435

> <HYBRID receptor title>
5S18(A) > WOY(A-201)

> <HYBRID receptor filename>
experiments/data/docking/5s18.oedu

> <Dock Type>
Hybrid

$$$$
MOL0283
  -OEChem-07032415493D

 30 30  0     0  0  0  0  0  0999 V2000
   -0.9829   14.6806   -1.6113 C   0  0  0  0  0  0  0  0  0  0  0  0
    1.3682   14.4866   -1.1742 C   0  0  0  0  0  0  0  0  0  0  0  0
    0.3832   14.5614   -2.0796 C   0  0  0  0  0  0  0  0  0  0  0  0
   -1.2982   14.7191   -0.3051 C   0  0  0  0  0  0  0  0  0  0  0  0
   -0.1773   14.6335    0.6968 C   0  0  0  0  0  0  0  0  0  0  0  0
   -4.9709   15.0314    0.2829 C   0  0  0  0  0  0  0  0  0  0  0  0
   -3.6330   16.1692   -1.5066 C   0  0  0  0  0  0  0  0  0  0  0  0
   -3.8608   13.6457   -1.4816 C   0  0  0  0  0  0  0  0  0  0  0  0
    0.6164   14.5286   -3.5564 C   0  0  0  0  0  0  0  0  0  0  0  0
   -3.7382   14.9181   -0.6246 C   0  0  0  0  0  0  0  0  0  0  0  0
    1.0986   14.5213    0.1689 N   0  0  0  0  0  0  0  0  0  0  0  0
   -2.5598   14.8300    0.1990 N   0  0  0  0  0  0  0  0  0  0  0  0
   -0.4029   14.6636    1.9052 O   0  0  0  0  0  0  0  0  0  0  0  0
   -4.7234   13.8670   -2.5923 O   0  0  0  0  0  0  0  0  0  0  0  0
   -0.5477   14.6205   -4.2335 F   0  0  0  0  0  0  0  0  0  0  0  0
    1.4035   15.5516   -3.9504 F   0  0  0  0  0  0  0  0  0  0  0  0
    1.2191   13.3792   -3.9272 F   0  0  0  0  0  0  0  0  0  0  0  0
   -1.7658   14.7395   -2.3627 H   0  0  0  0  0  0  0  0  0  0  0  0
    2.4140   14.3961   -1.4404 H   0  0  0  0  0  0  0  0  0  0  0  0
   -5.0701   14.1488    0.9249 H   0  0  0  0  0  0  0  0  0  0  0  0
   -5.8908   15.1273   -0.3044 H   0  0  0  0  0  0  0  0  0  0  0  0
   -4.8998   15.9046    0.9415 H   0  0  0  0  0  0  0  0  0  0  0  0
   -2.7590   16.1133   -2.1656 H   0  0  0  0  0  0  0  0  0  0  0  0
   -3.5389   17.0754   -0.8990 H   0  0  0  0  0  0  0  0  0  0  0  0
   -4.5116   16.2832   -2.1521 H   0  0  0  0  0  0  0  0  0  0  0  0
   -2.8828   13.3376   -1.8688 H   0  0  0  0  0  0  0  0  0  0  0  0
   -4.2764   12.8197   -0.8935 H   0  0  0  0  0  0  0  0  0  0  0  0
    1.8800   14.4612    0.8152 H   0  0  0  0  0  0  0  0  0  0  0  0
   -2.6673   14.8482    1.1996 H   0  0  0  0  0  0  0  0  0  0  0  0
   -4.7575   13.0337   -3.0877 H   0  0  0  0  0  0  0  0  0  0  0  0
  1  3  1  0  0  0  0
  1  4  2  0  0  0  0
  2  3  2  0  0  0  0
  2 11  1  0  0  0  0
  3  9  1  0  0  0  0
  4  5  1  0  0  0  0
  4 12  1  0  0  0  0
  5 11  1  0  0  0  0
  5 13  2  0  0  0  0
  6 10  1  0  0  0  0
  7 10  1  0  0  0  0
  8 10  1  0  0  0  0
  8 14  1  0  0  0  0
  9 15  1  0  0  0  0
  9 16  1  0  0  0  0
  9 17  1  0  0  0  0
 10 12  1  0  0  0  0
  1 18  1  0  0  0  0
  2 19  1  0  0  0  0
  6 20  1  0  0  0  0
  6 21  1  0  0  0  0
  6 22  1  0  0  0  0
  7 23  1  0  0  0  0
  7 24  1  0  0  0  0
  7 25  1  0  0  0  0
  8 26  1  0  0  0  0
  8 27  1  0  0  0  0
 11 28  1  0  0  0  0
 12 29  1  0  0  0  0
 14 30  1  0  0  0  0
M  END
> <HYBRID receptor title>
5S18(A) > WOY(A-201)

> <HYBRID receptor filename>
experiments/data/docking/5s18.oedu

> <HYBRID Chemgauss4 score>
-6.239449

> <HYBRID receptor title>
5S18(A) > WOY(A-201)

> <HYBRID receptor filename>
experiments/data/docking/5s18.oedu

> <Dock Type>
Hybrid

$$$$
MOL0356
  -OEChem-07032415493D

 24 24  0     0  0  0  0  0  0999 V2000
   -2.5911   14.8565   -0.9905 C   0  0  0  0  0  0  0  0  0  0  0  0
   -4.3296   15.1388    0.6480 C   0  0  0  0  0  0  0  0  0  0  0  0
   -3.9751   15.0550   -0.6383 C   0  0  0  0  0  0  0  0  0  0  0  0
   -1.6279   14.7514   -0.0578 C   0  0  0  0  0  0  0  0  0  0  0  0
   -2.0316   14.8471    1.3921 C   0  0  0  0  0  0  0  0  0  0  0  0
   -5.0165   15.1682   -1.6594 C   0  0  0  0  0  0  0  0  0  0  0  0
   -7.5033   15.3106   -1.9304 C   0  0  0  0  0  0  0  0  0  0  0  0
   -6.5381   13.6585   -0.3698 C   0  0  0  0  0  0  0  0  0  0  0  0
   -3.3833   15.0378    1.6355 N   0  0  0  0  0  0  0  0  0  0  0  0
   -0.3017   14.5636   -0.3107 N   0  0  0  0  0  0  0  0  0  0  0  0
   -6.3047   14.7278   -1.3311 N   0  0  0  0  0  0  0  0  0  0  0  0
   -1.1954   14.7586    2.2894 O   0  0  0  0  0  0  0  0  0  0  0  0
   -4.7107   15.6352   -2.7656 O   0  0  0  0  0  0  0  0  0  0  0  0
   -2.3411   14.7932   -2.0457 H   0  0  0  0  0  0  0  0  0  0  0  0
   -5.3471   15.2868    0.9888 H   0  0  0  0  0  0  0  0  0  0  0  0
   -7.7757   14.7749   -2.8443 H   0  0  0  0  0  0  0  0  0  0  0  0
   -8.3408   15.2568   -1.2291 H   0  0  0  0  0  0  0  0  0  0  0  0
   -7.3287   16.3613   -2.1782 H   0  0  0  0  0  0  0  0  0  0  0  0
   -6.6426   14.0653    0.6401 H   0  0  0  0  0  0  0  0  0  0  0  0
   -7.4514   13.1136   -0.6249 H   0  0  0  0  0  0  0  0  0  0  0  0
   -5.7025   12.9532   -0.3794 H   0  0  0  0  0  0  0  0  0  0  0  0
   -3.7008   15.1079    2.5979 H   0  0  0  0  0  0  0  0  0  0  0  0
   -0.0002   14.4961   -1.2589 H   0  0  0  0  0  0  0  0  0  0  0  0
    0.3279   14.4994    0.4595 H   0  0  0  0  0  0  0  0  0  0  0  0
  1  3  1  0  0  0  0
  1  4  2  0  0  0  0
  2  3  2  0  0  0  0
  2  9  1  0  0  0  0
  3  6  1  0  0  0  0
  4  5  1  0  0  0  0
  4 10  1  0  0  0  0
  5  9  1  0  0  0  0
  5 12  2  0  0  0  0
  6 11  1  0  0  0  0
  6 13  2  0  0  0  0
  7 11  1  0  0  0  0
  8 11  1  0  0  0  0
  1 14  1  0  0  0  0
  2 15  1  0  0  0  0
  7 16  1  0  0  0  0
  7 17  1  0  0  0  0
  7 18  1  0  0  0  0
  8 19  1  0  0  0  0
  8 20  1  0  0  0  0
  8 21  1  0  0  0  0
  9 22  1  0  0  0  0
 10 23  1  0  0  0  0
 10 24  1  0  0  0  0
M  END
> <HYBRID receptor title>
5S18(A) > WOY(A-201)

> <HYBRID receptor filename>
experiments/data/docking/5s18.oedu

> <HYBRID Chemgauss4 score>
-6.234592

> <HYBRID receptor title>
5S18(A) > WOY(A-201)

> <HYBRID receptor filename>
experiments/data/docking/5s18.oedu

> <Dock Type>
Hybrid

$$$$
MOL0049
  -OEChem-07032415493D

 14 14  0     0  0  0  0  0  0999 V2000
   -3.1205   15.1936   -1.1134 C   0  0  0  0  0  0  0  0  0  0  0  0
   -4.7049   15.2695    0.6946 C   0  0  0  0  0  0  0  0  0  0  0  0
   -2.0814   14.9643   -0.2914 C   0  0  0  0  0  0  0  0  0  0  0  0
   -4.4598   15.3498   -0.6140 C   0  0  0  0  0  0  0  0  0  0  0  0
   -2.3574   14.8733    1.1906 C   0  0  0  0  0  0  0  0  0  0  0  0
   -3.6808   15.0372    1.5749 N   0  0  0  0  0  0  0  0  0  0  0  0
   -0.7854   14.8046   -0.6819 N   0  0  0  0  0  0  0  0  0  0  0  0
   -1.4480   14.6656    1.9921 O   0  0  0  0  0  0  0  0  0  0  0  0
   -5.4549   15.5778   -1.4934 F   0  0  0  0  0  0  0  0  0  0  0  0
   -2.9786   15.2682   -2.1869 H   0  0  0  0  0  0  0  0  0  0  0  0
   -5.6933   15.3794    1.1209 H   0  0  0  0  0  0  0  0  0  0  0  0
   -3.9134   14.9838    2.5623 H   0  0  0  0  0  0  0  0  0  0  0  0
   -0.5681   14.8589   -1.6538 H   0  0  0  0  0  0  0  0  0  0  0  0
   -0.0924   14.6384    0.0152 H   0  0  0  0  0  0  0  0  0  0  0  0
  1  3  2  0  0  0  0
  1  4  1  0  0  0  0
  2  4  2  0  0  0  0
  2  6  1  0  0  0  0
  3  5  1  0  0  0  0
  3  7  1  0  0  0  0
  4  9  1  0  0  0  0
  5  6  1  0  0  0  0
  5  8  2  0  0  0  0
  1 10  1  0  0  0  0
  2 11  1  0  0  0  0
  6 12  1  0  0  0  0
  7 13  1  0  0  0  0
  7 14  1  0  0  0  0
M  END
> <HYBRID receptor title>
5S18(A) > WOY(A-201)

> <HYBRID receptor filename>
experiments/data/docking/5s18.oedu

> <HYBRID Chemgauss4 score>
-6.233317

> <HYBRID receptor title>
5S18(A) > WOY(A-201)

> <HYBRID receptor filename>
experiments/data/docking/5s18.oedu

> <Dock Type>
Hybrid

$$$$
MOL0061
  -OEChem-07032415493D

 21 21  0     0  0  0  0  0  0999 V2000
   -4.3385   14.7516   -1.3675 C   0  0  0  0  0  0  0  0  0  0  0  0
   -2.9079   14.6601    0.5642 C   0  0  0  0  0  0  0  0  0  0  0  0
   -3.0301   14.6721   -0.7670 C   0  0  0  0  0  0  0  0  0  0  0  0
   -5.4587   14.8148   -0.6260 C   0  0  0  0  0  0  0  0  0  0  0  0
   -5.3169   14.8004    0.8753 C   0  0  0  0  0  0  0  0  0  0  0  0
   -1.8245   14.6039   -1.5681 C   0  0  0  0  0  0  0  0  0  0  0  0
   -1.9099   14.2121   -2.8504 C   0  0  0  0  0  0  0  0  0  0  0  0
   -0.7479   14.1002   -3.7744 C   0  0  0  0  0  0  0  0  0  0  0  0
   -4.0211   14.7224    1.3629 N   0  0  0  0  0  0  0  0  0  0  0  0
   -6.7276   14.8911   -1.1182 N   0  0  0  0  0  0  0  0  0  0  0  0
   -6.3051   14.8555    1.6054 O   0  0  0  0  0  0  0  0  0  0  0  0
   -1.0889   13.6825   -5.0193 F   0  0  0  0  0  0  0  0  0  0  0  0
   -0.1157   15.2925   -3.9202 F   0  0  0  0  0  0  0  0  0  0  0  0
    0.1740   13.2221   -3.3053 F   0  0  0  0  0  0  0  0  0  0  0  0
   -4.4028   14.7592   -2.4523 H   0  0  0  0  0  0  0  0  0  0  0  0
   -1.9627   14.6026    1.0914 H   0  0  0  0  0  0  0  0  0  0  0  0
   -0.8749   14.8729   -1.1089 H   0  0  0  0  0  0  0  0  0  0  0  0
   -2.8778   13.9516   -3.2710 H   0  0  0  0  0  0  0  0  0  0  0  0
   -3.8775   14.7101    2.3684 H   0  0  0  0  0  0  0  0  0  0  0  0
   -6.8575   14.9023   -2.1069 H   0  0  0  0  0  0  0  0  0  0  0  0
   -7.4885   14.9335   -0.4754 H   0  0  0  0  0  0  0  0  0  0  0  0
  1  3  1  0  0  0  0
  1  4  2  0  0  0  0
  2  3  2  0  0  0  0
  2  9  1  0  0  0  0
  3  6  1  0  0  0  0
  4  5  1  0  0  0  0
  4 10  1  0  0  0  0
  5  9  1  0  0  0  0
  5 11  2  0  0  0  0
  6  7  2  0  0  0  0
  7  8  1  0  0  0  0
  8 12  1  0  0  0  0
  8 13  1  0  0  0  0
  8 14  1  0  0  0  0
  1 15  1  0  0  0  0
  2 16  1  0  0  0  0
  6 17  1  0  0  0  0
  7 18  1  0  0  0  0
  9 19  1  0  0  0  0
 10 20  1  0  0  0  0
 10 21  1  0  0  0  0
M  END
> <HYBRID receptor title>
5S18(A) > WOY(A-201)

> <HYBRID receptor filename>
experiments/data/docking/5s18.oedu

> <HYBRID Chemgauss4 score>
-6.230224

> <HYBRID receptor title>
5S18(A) > WOY(A-201)

> <HYBRID receptor filename>
experiments/data/docking/5s18.oedu

> <Dock Type>
Hybrid

$$$$
MOL0349
  -OEChem-07032415493D

 24 24  0     0  0  0  0  0  0999 V2000
   -1.3266   14.6341   -1.4864 C   0  0  0  0  0  0  0  0  0  0  0  0
    1.0517   14.4321   -1.2429 C   0  0  0  0  0  0  0  0  0  0  0  0
   -0.0046   14.5010   -2.0645 C   0  0  0  0  0  0  0  0  0  0  0  0
   -1.5323   14.6914   -0.1592 C   0  0  0  0  0  0  0  0  0  0  0  0
   -0.3327   14.6123    0.7475 C   0  0  0  0  0  0  0  0  0  0  0  0
   -3.9891   14.9038   -0.2783 C   0  0  0  0  0  0  0  0  0  0  0  0
   -5.1447   15.0152    0.6994 C   0  0  0  0  0  0  0  0  0  0  0  0
    0.1052   14.4476   -3.5550 C   0  0  0  0  0  0  0  0  0  0  0  0
    0.8946   14.4858    0.1173 N   0  0  0  0  0  0  0  0  0  0  0  0
   -2.7472   14.8161    0.4462 N   0  0  0  0  0  0  0  0  0  0  0  0
   -0.4572   14.6593    1.9699 O   0  0  0  0  0  0  0  0  0  0  0  0
   -5.1743   13.8618    1.5305 O   0  0  0  0  0  0  0  0  0  0  0  0
   -1.1104   14.5375   -4.1345 F   0  0  0  0  0  0  0  0  0  0  0  0
    0.8618   15.4608   -4.0265 F   0  0  0  0  0  0  0  0  0  0  0  0
    0.6698   13.2900   -3.9590 F   0  0  0  0  0  0  0  0  0  0  0  0
   -2.1688   14.6878   -2.1710 H   0  0  0  0  0  0  0  0  0  0  0  0
    2.0715   14.3321   -1.5936 H   0  0  0  0  0  0  0  0  0  0  0  0
   -3.9474   15.7846   -0.9262 H   0  0  0  0  0  0  0  0  0  0  0  0
   -4.0856   14.0074   -0.8985 H   0  0  0  0  0  0  0  0  0  0  0  0
   -5.0536   15.9035    1.3329 H   0  0  0  0  0  0  0  0  0  0  0  0
   -6.0923   15.0628    0.1544 H   0  0  0  0  0  0  0  0  0  0  0  0
    1.7265   14.4296    0.6975 H   0  0  0  0  0  0  0  0  0  0  0  0
   -2.7716   14.8454    1.4519 H   0  0  0  0  0  0  0  0  0  0  0  0
   -5.9238   13.9738    2.1370 H   0  0  0  0  0  0  0  0  0  0  0  0
  1  3  1  0  0  0  0
  1  4  2  0  0  0  0
  2  3  2  0  0  0  0
  2  9  1  0  0  0  0
  3  8  1  0  0  0  0
  4  5  1  0  0  0  0
  4 10  1  0  0  0  0
  5  9  1  0  0  0  0
  5 11  2  0  0  0  0
  6  7  1  0  0  0  0
  6 10  1  0  0  0  0
  7 12  1  0  0  0  0
  8 13  1  0  0  0  0
  8 14  1  0  0  0  0
  8 15  1  0  0  0  0
  1 16  1  0  0  0  0
  2 17  1  0  0  0  0
  6 18  1  0  0  0  0
  6 19  1  0  0  0  0
  7 20  1  0  0  0  0
  7 21  1  0  0  0  0
  9 22  1  0  0  0  0
 10 23  1  0  0  0  0
 12 24  1  0  0  0  0
M  END
> <HYBRID receptor title>
5S18(A) > WOY(A-201)

> <HYBRID receptor filename>
experiments/data/docking/5s18.oedu

> <HYBRID Chemgauss4 score>
-6.225720

> <HYBRID receptor title>
5S18(A) > WOY(A-201)

> <HYBRID receptor filename>
experiments/data/docking/5s18.oedu

> <Dock Type>
Hybrid

$$$$
MOL0102
  -OEChem-07032415493D

 23 23  0     0  0  0  0  0  0999 V2000
   -3.2951   15.1727   -1.0129 C   0  0  0  0  0  0  0  0  0  0  0  0
   -4.7434   14.7088    0.8429 C   0  0  0  0  0  0  0  0  0  0  0  0
   -4.6133   14.8987   -0.4772 C   0  0  0  0  0  0  0  0  0  0  0  0
   -2.2000   15.2428   -0.2364 C   0  0  0  0  0  0  0  0  0  0  0  0
   -2.3667   15.0267    1.2444 C   0  0  0  0  0  0  0  0  0  0  0  0
    1.5556   14.7584   -1.3012 C   0  0  0  0  0  0  0  0  0  0  0  0
   -5.7606   14.8427   -1.4352 C   0  0  0  0  0  0  0  0  0  0  0  0
   -3.6577   14.7704    1.6767 N   0  0  0  0  0  0  0  0  0  0  0  0
   -0.9527   15.5120   -0.8132 N   0  0  0  0  0  0  0  0  0  0  0  0
   -1.3963   15.0805    1.9970 O   0  0  0  0  0  0  0  0  0  0  0  0
    0.9066   15.9219    0.9355 O   0  0  0  0  0  0  0  0  0  0  0  0
    0.1041   13.5651    0.5095 O   0  0  0  0  0  0  0  0  0  0  0  0
   -5.3476   15.0691   -2.7000 F   0  0  0  0  0  0  0  0  0  0  0  0
   -6.3618   13.6348   -1.4083 F   0  0  0  0  0  0  0  0  0  0  0  0
   -6.6911   15.7725   -1.1327 F   0  0  0  0  0  0  0  0  0  0  0  0
    0.3982   14.9042    0.0367 S   0  0  0  0  0  0  0  0  0  0  0  0
   -3.2198   15.3230   -2.0869 H   0  0  0  0  0  0  0  0  0  0  0  0
   -5.6919   14.4996    1.3220 H   0  0  0  0  0  0  0  0  0  0  0  0
    2.4947   14.3709   -0.9036 H   0  0  0  0  0  0  0  0  0  0  0  0
    1.7039   15.7471   -1.7372 H   0  0  0  0  0  0  0  0  0  0  0  0
    1.1415   14.0723   -2.0415 H   0  0  0  0  0  0  0  0  0  0  0  0
   -3.8083   14.6194    2.6699 H   0  0  0  0  0  0  0  0  0  0  0  0
   -0.8727   16.4112   -1.3164 H   0  0  0  0  0  0  0  0  0  0  0  0
  1  3  1  0  0  0  0
  1  4  2  0  0  0  0
  2  3  2  0  0  0  0
  2  8  1  0  0  0  0
  3  7  1  0  0  0  0
  4  5  1  0  0  0  0
  4  9  1  0  0  0  0
  5  8  1  0  0  0  0
  5 10  2  0  0  0  0
  6 16  1  0  0  0  0
  7 13  1  0  0  0  0
  7 14  1  0  0  0  0
  7 15  1  0  0  0  0
  9 16  1  0  0  0  0
 11 16  2  0  0  0  0
 12 16  2  0  0  0  0
  1 17  1  0  0  0  0
  2 18  1  0  0  0  0
  6 19  1  0  0  0  0
  6 20  1  0  0  0  0
  6 21  1  0  0  0  0
  8 22  1  0  0  0  0
  9 23  1  0  0  0  0
M  END
> <HYBRID receptor title>
5S18(A) > WOY(A-201)

> <HYBRID receptor filename>
experiments/data/docking/5s18.oedu

> <HYBRID Chemgauss4 score>
-6.219330

> <HYBRID receptor title>
5S18(A) > WOY(A-201)

> <HYBRID receptor filename>
experiments/data/docking/5s18.oedu

> <Dock Type>
Hybrid

$$$$
MOL0006
  -OEChem-07032415493D

 17 17  0     0  0  0  0  0  0999 V2000
   -3.8015   14.7434   -1.1321 C   0  0  0  0  0  0  0  0  0  0  0  0
   -5.1267   14.3798    0.8346 C   0  0  0  0  0  0  0  0  0  0  0  0
   -5.0664   14.4206   -0.5034 C   0  0  0  0  0  0  0  0  0  0  0  0
   -2.6884   15.0027   -0.4245 C   0  0  0  0  0  0  0  0  0  0  0  0
   -2.7764   14.9521    1.0779 C   0  0  0  0  0  0  0  0  0  0  0  0
   -6.2398   14.1498   -1.3903 C   0  0  0  0  0  0  0  0  0  0  0  0
   -4.0200   14.6367    1.6007 N   0  0  0  0  0  0  0  0  0  0  0  0
   -1.4710   15.3117   -0.9541 N   0  0  0  0  0  0  0  0  0  0  0  0
   -1.7923   15.1798    1.7791 O   0  0  0  0  0  0  0  0  0  0  0  0
   -3.7755   14.7712   -2.2181 H   0  0  0  0  0  0  0  0  0  0  0  0
   -6.0320   14.1470    1.3816 H   0  0  0  0  0  0  0  0  0  0  0  0
   -6.2833   13.0876   -1.6274 H   0  0  0  0  0  0  0  0  0  0  0  0
   -6.1444   14.7217   -2.3124 H   0  0  0  0  0  0  0  0  0  0  0  0
   -7.1582   14.4450   -0.8846 H   0  0  0  0  0  0  0  0  0  0  0  0
   -4.1170   14.5933    2.6109 H   0  0  0  0  0  0  0  0  0  0  0  0
   -1.3774   15.3542   -1.9461 H   0  0  0  0  0  0  0  0  0  0  0  0
   -0.7098   15.4864   -0.3344 H   0  0  0  0  0  0  0  0  0  0  0  0
  1  3  1  0  0  0  0
  1  4  2  0  0  0  0
  2  3  2  0  0  0  0
  2  7  1  0  0  0  0
  3  6  1  0  0  0  0
  4  5  1  0  0  0  0
  4  8  1  0  0  0  0
  5  7  1  0  0  0  0
  5  9  2  0  0  0  0
  1 10  1  0  0  0  0
  2 11  1  0  0  0  0
  6 12  1  0  0  0  0
  6 13  1  0  0  0  0
  6 14  1  0  0  0  0
  7 15  1  0  0  0  0
  8 16  1  0  0  0  0
  8 17  1  0  0  0  0
M  END
> <HYBRID receptor title>
5S18(A) > WOY(A-201)

> <HYBRID receptor filename>
experiments/data/docking/5s18.oedu

> <HYBRID Chemgauss4 score>
-6.219028

> <HYBRID receptor title>
5S18(A) > WOY(A-201)

> <HYBRID receptor filename>
experiments/data/docking/5s18.oedu

> <Dock Type>
Hybrid

$$$$
MOL0017
  -OEChem-07032415493D

 17 17  0     0  0  0  0  0  0999 V2000
   -1.8017   14.5398   -1.0381 C   0  0  0  0  0  0  0  0  0  0  0  0
   -3.2163   14.7304   -0.8375 C   0  0  0  0  0  0  0  0  0  0  0  0
   -0.9263   14.5319   -0.0195 C   0  0  0  0  0  0  0  0  0  0  0  0
   -3.7007   14.9095    0.3996 C   0  0  0  0  0  0  0  0  0  0  0  0
   -1.4661   14.7324    1.3717 C   0  0  0  0  0  0  0  0  0  0  0  0
   -5.1500   15.1153    0.7016 C   0  0  0  0  0  0  0  0  0  0  0  0
   -2.8371   14.9088    1.4737 N   0  0  0  0  0  0  0  0  0  0  0  0
    0.4204   14.3572   -0.1351 N   0  0  0  0  0  0  0  0  0  0  0  0
   -0.7166   14.7360    2.3469 O   0  0  0  0  0  0  0  0  0  0  0  0
   -5.8893   15.0958   -0.4279 F   0  0  0  0  0  0  0  0  0  0  0  0
   -5.6223   14.1502    1.5186 F   0  0  0  0  0  0  0  0  0  0  0  0
   -5.3563   16.3039    1.3078 F   0  0  0  0  0  0  0  0  0  0  0  0
   -1.4657   14.4000   -2.0612 H   0  0  0  0  0  0  0  0  0  0  0  0
   -3.8596   14.7239   -1.7103 H   0  0  0  0  0  0  0  0  0  0  0  0
   -3.2360   15.0471    2.3980 H   0  0  0  0  0  0  0  0  0  0  0  0
    0.8095   14.2221   -1.0435 H   0  0  0  0  0  0  0  0  0  0  0  0
    0.9775   14.3695    0.6917 H   0  0  0  0  0  0  0  0  0  0  0  0
  1  2  1  0  0  0  0
  1  3  2  0  0  0  0
  2  4  2  0  0  0  0
  3  5  1  0  0  0  0
  3  8  1  0  0  0  0
  4  6  1  0  0  0  0
  4  7  1  0  0  0  0
  5  7  1  0  0  0  0
  5  9  2  0  0  0  0
  6 10  1  0  0  0  0
  6 11  1  0  0  0  0
  6 12  1  0  0  0  0
  1 13  1  0  0  0  0
  2 14  1  0  0  0  0
  7 15  1  0  0  0  0
  8 16  1  0  0  0  0
  8 17  1  0  0  0  0
M  END
> <HYBRID receptor title>
5S18(A) > WOY(A-201)

> <HYBRID receptor filename>
experiments/data/docking/5s18.oedu

> <HYBRID Chemgauss4 score>
-6.217889

> <HYBRID receptor title>
5S18(A) > WOY(A-201)

> <HYBRID receptor filename>
experiments/data/docking/5s18.oedu

> <Dock Type>
Hybrid

$$$$
MOL0124
  -OEChem-07032415493D

 21 21  0     0  0  0  0  0  0999 V2000
   -2.5898   14.6864   -0.9799 C   0  0  0  0  0  0  0  0  0  0  0  0
   -4.3913   15.1153    0.5968 C   0  0  0  0  0  0  0  0  0  0  0  0
   -1.7164   14.6664    0.0334 C   0  0  0  0  0  0  0  0  0  0  0  0
   -3.9693   14.9210   -0.6565 C   0  0  0  0  0  0  0  0  0  0  0  0
   -2.1160   14.8737    1.4517 C   0  0  0  0  0  0  0  0  0  0  0  0
   -4.6950   14.2082   -2.8568 C   0  0  0  0  0  0  0  0  0  0  0  0
   -5.8280   14.4279   -3.8166 C   0  0  0  0  0  0  0  0  0  0  0  0
   -3.4809   15.0920    1.6319 N   0  0  0  0  0  0  0  0  0  0  0  0
   -0.3773   14.4518   -0.1575 N   0  0  0  0  0  0  0  0  0  0  0  0
   -4.8592   14.9405   -1.6946 N   0  0  0  0  0  0  0  0  0  0  0  0
   -1.3041   14.8521    2.3727 O   0  0  0  0  0  0  0  0  0  0  0  0
   -3.7589   13.4582   -3.1200 O   0  0  0  0  0  0  0  0  0  0  0  0
   -6.7505   15.2929   -3.3236 F   0  0  0  0  0  0  0  0  0  0  0  0
   -5.4000   14.9390   -4.9994 F   0  0  0  0  0  0  0  0  0  0  0  0
   -6.4842   13.2750   -4.1027 F   0  0  0  0  0  0  0  0  0  0  0  0
   -2.2855   14.5337   -2.0095 H   0  0  0  0  0  0  0  0  0  0  0  0
   -5.4221   15.2949    0.8757 H   0  0  0  0  0  0  0  0  0  0  0  0
   -3.8231   15.2419    2.5765 H   0  0  0  0  0  0  0  0  0  0  0  0
   -0.0499   14.3065   -1.0849 H   0  0  0  0  0  0  0  0  0  0  0  0
    0.2185   14.4492    0.6380 H   0  0  0  0  0  0  0  0  0  0  0  0
   -5.6849   15.5239   -1.6078 H   0  0  0  0  0  0  0  0  0  0  0  0
  1  3  2  0  0  0  0
  1  4  1  0  0  0  0
  2  4  2  0  0  0  0
  2  8  1  0  0  0  0
  3  5  1  0  0  0  0
  3  9  1  0  0  0  0
  4 10  1  0  0  0  0
  5  8  1  0  0  0  0
  5 11  2  0  0  0  0
  6  7  1  0  0  0  0
  6 10  1  0  0  0  0
  6 12  2  0  0  0  0
  7 13  1  0  0  0  0
  7 14  1  0  0  0  0
  7 15  1  0  0  0  0
  1 16  1  0  0  0  0
  2 17  1  0  0  0  0
  8 18  1  0  0  0  0
  9 19  1  0  0  0  0
  9 20  1  0  0  0  0
 10 21  1  0  0  0  0
M  END
> <HYBRID receptor title>
5S18(A) > WOY(A-201)

> <HYBRID receptor filename>
experiments/data/docking/5s18.oedu

> <HYBRID Chemgauss4 score>
-6.206889

> <HYBRID receptor title>
5S18(A) > WOY(A-201)

> <HYBRID receptor filename>
experiments/data/docking/5s18.oedu

> <Dock Type>
Hybrid

$$$$
MOL0245
  -OEChem-07032415493D

 17 17  0     0  0  0  0  0  0999 V2000
   -2.3626   14.9993    1.6042 C   0  0  0  0  0  0  0  0  0  0  0  0
   -4.0125   14.6087   -0.6273 C   0  0  0  0  0  0  0  0  0  0  0  0
   -2.6757   14.7589   -0.8007 C   0  0  0  0  0  0  0  0  0  0  0  0
   -1.8216   14.9632    0.3791 C   0  0  0  0  0  0  0  0  0  0  0  0
   -4.6026   14.6526    0.7612 C   0  0  0  0  0  0  0  0  0  0  0  0
   -5.0214   14.3928   -1.7225 C   0  0  0  0  0  0  0  0  0  0  0  0
   -3.7069   14.8493    1.7908 N   0  0  0  0  0  0  0  0  0  0  0  0
   -2.0619   14.7312   -2.0279 N   0  0  0  0  0  0  0  0  0  0  0  0
   -5.8112   14.5191    0.9445 O   0  0  0  0  0  0  0  0  0  0  0  0
   -4.4187   14.3662   -2.9263 F   0  0  0  0  0  0  0  0  0  0  0  0
   -5.6714   13.2260   -1.5534 F   0  0  0  0  0  0  0  0  0  0  0  0
   -5.9337   15.3831   -1.7318 F   0  0  0  0  0  0  0  0  0  0  0  0
    0.0330   15.1754    0.1769 Br  0  0  0  0  0  0  0  0  0  0  0  0
   -1.7852   15.1465    2.5093 H   0  0  0  0  0  0  0  0  0  0  0  0
   -4.0667   14.8845    2.7401 H   0  0  0  0  0  0  0  0  0  0  0  0
   -2.6274   14.5938   -2.8324 H   0  0  0  0  0  0  0  0  0  0  0  0
   -1.0772   14.8497   -2.0629 H   0  0  0  0  0  0  0  0  0  0  0  0
  1  4  2  0  0  0  0
  1  7  1  0  0  0  0
  2  3  2  0  0  0  0
  2  5  1  0  0  0  0
  2  6  1  0  0  0  0
  3  4  1  0  0  0  0
  3  8  1  0  0  0  0
  4 13  1  0  0  0  0
  5  7  1  0  0  0  0
  5  9  2  0  0  0  0
  6 10  1  0  0  0  0
  6 11  1  0  0  0  0
  6 12  1  0  0  0  0
  1 14  1  0  0  0  0
  7 15  1  0  0  0  0
  8 16  1  0  0  0  0
  8 17  1  0  0  0  0
M  END
> <HYBRID receptor title>
5S18(A) > WOY(A-201)

> <HYBRID receptor filename>
experiments/data/docking/5s18.oedu

> <HYBRID Chemgauss4 score>
-6.204352

> <HYBRID receptor title>
5S18(A) > WOY(A-201)

> <HYBRID receptor filename>
experiments/data/docking/5s18.oedu

> <Dock Type>
Hybrid

$$$$
MOL0405
  -OEChem-07032415493D

 30 31  0     0  0  0  0  0  0999 V2000
   -3.1676   14.5631   -1.0447 C   0  0  0  0  0  0  0  0  0  0  0  0
   -2.3134   15.2056    1.1034 C   0  0  0  0  0  0  0  0  0  0  0  0
   -2.0946   15.0671   -0.2114 C   0  0  0  0  0  0  0  0  0  0  0  0
   -4.3720   14.2303   -0.5490 C   0  0  0  0  0  0  0  0  0  0  0  0
   -4.5982   14.3928    0.9308 C   0  0  0  0  0  0  0  0  0  0  0  0
    0.3743   15.1150   -2.9530 C   0  0  0  0  0  0  0  0  0  0  0  0
   -0.1587   13.1970   -1.5987 C   0  0  0  0  0  0  0  0  0  0  0  0
    0.5758   14.1825   -4.1440 C   0  0  0  0  0  0  0  0  0  0  0  0
    0.0553   12.3096   -2.8217 C   0  0  0  0  0  0  0  0  0  0  0  0
   -0.8039   15.4039   -0.8675 C   0  0  0  0  0  0  0  0  0  0  0  0
   -3.5238   14.8798    1.6572 N   0  0  0  0  0  0  0  0  0  0  0  0
   -0.6030   14.5319   -2.0235 N   0  0  0  0  0  0  0  0  0  0  0  0
   -5.4201   13.7520   -1.2774 N   0  0  0  0  0  0  0  0  0  0  0  0
   -5.6786   14.1052    1.4428 O   0  0  0  0  0  0  0  0  0  0  0  0
    1.0141   12.8977   -3.7015 O   0  0  0  0  0  0  0  0  0  0  0  0
   -2.9682   14.4585   -2.1078 H   0  0  0  0  0  0  0  0  0  0  0  0
   -1.5656   15.5747    1.7943 H   0  0  0  0  0  0  0  0  0  0  0  0
    1.3354   15.2715   -2.4460 H   0  0  0  0  0  0  0  0  0  0  0  0
    0.0203   16.0859   -3.3178 H   0  0  0  0  0  0  0  0  0  0  0  0
   -0.9118   12.7343   -0.9507 H   0  0  0  0  0  0  0  0  0  0  0  0
    0.7789   13.2705   -1.0324 H   0  0  0  0  0  0  0  0  0  0  0  0
   -0.3435   14.0733   -4.7324 H   0  0  0  0  0  0  0  0  0  0  0  0
    1.3472   14.5870   -4.8071 H   0  0  0  0  0  0  0  0  0  0  0  0
    0.4430   11.3341   -2.5110 H   0  0  0  0  0  0  0  0  0  0  0  0
   -0.8816   12.1359   -3.3650 H   0  0  0  0  0  0  0  0  0  0  0  0
   -0.8142   16.4498   -1.1867 H   0  0  0  0  0  0  0  0  0  0  0  0
    0.0216   15.2692   -0.1630 H   0  0  0  0  0  0  0  0  0  0  0  0
   -3.6400   15.0027    2.6588 H   0  0  0  0  0  0  0  0  0  0  0  0
   -5.3043   13.6317   -2.2606 H   0  0  0  0  0  0  0  0  0  0  0  0
   -6.2717   13.5363   -0.8060 H   0  0  0  0  0  0  0  0  0  0  0  0
  1  3  1  0  0  0  0
  1  4  2  0  0  0  0
  2  3  2  0  0  0  0
  2 11  1  0  0  0  0
  3 10  1  0  0  0  0
  4  5  1  0  0  0  0
  4 13  1  0  0  0  0
  5 11  1  0  0  0  0
  5 14  2  0  0  0  0
  6  8  1  0  0  0  0
  6 12  1  0  0  0  0
  7  9  1  0  0  0  0
  7 12  1  0  0  0  0
  8 15  1  0  0  0  0
  9 15  1  0  0  0  0
 10 12  1  0  0  0  0
  1 16  1  0  0  0  0
  2 17  1  0  0  0  0
  6 18  1  0  0  0  0
  6 19  1  0  0  0  0
  7 20  1  0  0  0  0
  7 21  1  0  0  0  0
  8 22  1  0  0  0  0
  8 23  1  0  0  0  0
  9 24  1  0  0  0  0
  9 25  1  0  0  0  0
 10 26  1  0  0  0  0
 10 27  1  0  0  0  0
 11 28  1  0  0  0  0
 13 29  1  0  0  0  0
 13 30  1  0  0  0  0
M  END
> <HYBRID receptor title>
5S18(A) > WOY(A-201)

> <HYBRID receptor filename>
experiments/data/docking/5s18.oedu

> <HYBRID Chemgauss4 score>
-6.175389

> <HYBRID receptor title>
5S18(A) > WOY(A-201)

> <HYBRID receptor filename>
experiments/data/docking/5s18.oedu

> <Dock Type>
Hybrid

$$$$
MOL0331
  -OEChem-07032415493D

 28 28  0     0  0  0  0  0  0999 V2000
   -2.4883   14.7458   -1.0865 C   0  0  0  0  0  0  0  0  0  0  0  0
   -4.2850   15.1826    0.4523 C   0  0  0  0  0  0  0  0  0  0  0  0
   -3.8820   14.9882   -0.8075 C   0  0  0  0  0  0  0  0  0  0  0  0
   -1.5638   14.7078   -0.1106 C   0  0  0  0  0  0  0  0  0  0  0  0
   -2.0221   14.9281    1.3092 C   0  0  0  0  0  0  0  0  0  0  0  0
   -4.8921   15.0282   -1.8869 C   0  0  0  0  0  0  0  0  0  0  0  0
   -6.6022   13.9921   -3.4205 C   0  0  0  0  0  0  0  0  0  0  0  0
   -6.3206   13.1199   -1.0728 C   0  0  0  0  0  0  0  0  0  0  0  0
   -4.5556   12.7088   -2.7889 C   0  0  0  0  0  0  0  0  0  0  0  0
   -5.6012   13.7214   -2.2877 C   0  0  0  0  0  0  0  0  0  0  0  0
   -3.3793   15.1534    1.4819 N   0  0  0  0  0  0  0  0  0  0  0  0
   -0.2316   14.4850   -0.2939 N   0  0  0  0  0  0  0  0  0  0  0  0
   -1.2228   14.9052    2.2435 O   0  0  0  0  0  0  0  0  0  0  0  0
   -5.1285   16.1081   -2.4268 O   0  0  0  0  0  0  0  0  0  0  0  0
   -2.1984   14.5922   -2.1220 H   0  0  0  0  0  0  0  0  0  0  0  0
   -5.3128   15.3696    0.7389 H   0  0  0  0  0  0  0  0  0  0  0  0
   -7.1166   13.0718   -3.7187 H   0  0  0  0  0  0  0  0  0  0  0  0
   -6.1105   14.3935   -4.3130 H   0  0  0  0  0  0  0  0  0  0  0  0
   -7.3619   14.7191   -3.1117 H   0  0  0  0  0  0  0  0  0  0  0  0
   -6.8327   12.1874   -1.3372 H   0  0  0  0  0  0  0  0  0  0  0  0
   -5.6127   12.8983   -0.2655 H   0  0  0  0  0  0  0  0  0  0  0  0
   -7.0751   13.8015   -0.6652 H   0  0  0  0  0  0  0  0  0  0  0  0
   -5.0271   11.7635   -3.0838 H   0  0  0  0  0  0  0  0  0  0  0  0
   -4.0119   13.0948   -3.6596 H   0  0  0  0  0  0  0  0  0  0  0  0
   -3.8188   12.4789   -2.0113 H   0  0  0  0  0  0  0  0  0  0  0  0
   -3.7330   15.3068    2.4217 H   0  0  0  0  0  0  0  0  0  0  0  0
    0.1056   14.3356   -1.2205 H   0  0  0  0  0  0  0  0  0  0  0  0
    0.3667   14.4780    0.5035 H   0  0  0  0  0  0  0  0  0  0  0  0
  1  3  1  0  0  0  0
  1  4  2  0  0  0  0
  2  3  2  0  0  0  0
  2 11  1  0  0  0  0
  3  6  1  0  0  0  0
  4  5  1  0  0  0  0
  4 12  1  0  0  0  0
  5 11  1  0  0  0  0
  5 13  2  0  0  0  0
  6 10  1  0  0  0  0
  6 14  2  0  0  0  0
  7 10  1  0  0  0  0
  8 10  1  0  0  0  0
  9 10  1  0  0  0  0
  1 15  1  0  0  0  0
  2 16  1  0  0  0  0
  7 17  1  0  0  0  0
  7 18  1  0  0  0  0
  7 19  1  0  0  0  0
  8 20  1  0  0  0  0
  8 21  1  0  0  0  0
  8 22  1  0  0  0  0
  9 23  1  0  0  0  0
  9 24  1  0  0  0  0
  9 25  1  0  0  0  0
 11 26  1  0  0  0  0
 12 27  1  0  0  0  0
 12 28  1  0  0  0  0
M  END
> <HYBRID receptor title>
5S18(A) > WOY(A-201)

> <HYBRID receptor filename>
experiments/data/docking/5s18.oedu

> <HYBRID Chemgauss4 score>
-6.168043

> <HYBRID receptor title>
5S18(A) > WOY(A-201)

> <HYBRID receptor filename>
experiments/data/docking/5s18.oedu

> <Dock Type>
Hybrid

$$$$
MOL0108
  -OEChem-07032415493D

 18 18  0     0  0  0  0  0  0999 V2000
   -1.1088   14.7063   -0.9905 C   0  0  0  0  0  0  0  0  0  0  0  0
   -2.2727   15.0206    1.0599 C   0  0  0  0  0  0  0  0  0  0  0  0
   -2.3162   14.8317   -0.3125 C   0  0  0  0  0  0  0  0  0  0  0  0
    0.0882   14.7726   -0.2861 C   0  0  0  0  0  0  0  0  0  0  0  0
    0.0244   14.9642    1.0847 C   0  0  0  0  0  0  0  0  0  0  0  0
   -3.6134   14.7655   -1.0370 C   0  0  0  0  0  0  0  0  0  0  0  0
   -1.1292   15.0903    1.7779 N   0  0  0  0  0  0  0  0  0  0  0  0
    1.3112   14.6455   -0.9709 N   0  0  0  0  0  0  0  0  0  0  0  0
    1.2401   15.0340    1.8104 N   0  0  0  0  0  0  0  0  0  0  0  0
   -3.4858   14.5758   -2.3852 F   0  0  0  0  0  0  0  0  0  0  0  0
   -4.3543   15.9056   -0.9005 F   0  0  0  0  0  0  0  0  0  0  0  0
   -4.4270   13.7512   -0.6131 F   0  0  0  0  0  0  0  0  0  0  0  0
   -1.1034   14.5588   -2.0681 H   0  0  0  0  0  0  0  0  0  0  0  0
   -3.1823   15.1260    1.6432 H   0  0  0  0  0  0  0  0  0  0  0  0
    1.3050   14.4554   -1.9538 H   0  0  0  0  0  0  0  0  0  0  0  0
    2.1665   14.6413   -0.4504 H   0  0  0  0  0  0  0  0  0  0  0  0
    2.0981   14.8910    1.3245 H   0  0  0  0  0  0  0  0  0  0  0  0
    1.2030   15.1184    2.8024 H   0  0  0  0  0  0  0  0  0  0  0  0
  1  3  2  0  0  0  0
  1  4  1  0  0  0  0
  2  3  1  0  0  0  0
  2  7  2  0  0  0  0
  3  6  1  0  0  0  0
  4  5  2  0  0  0  0
  4  8  1  0  0  0  0
  5  7  1  0  0  0  0
  5  9  1  0  0  0  0
  6 10  1  0  0  0  0
  6 11  1  0  0  0  0
  6 12  1  0  0  0  0
  1 13  1  0  0  0  0
  2 14  1  0  0  0  0
  8 15  1  0  0  0  0
  8 16  1  0  0  0  0
  9 17  1  0  0  0  0
  9 18  1  0  0  0  0
M  END
> <HYBRID receptor title>
5S18(A) > WOY(A-201)

> <HYBRID receptor filename>
experiments/data/docking/5s18.oedu

> <HYBRID Chemgauss4 score>
-6.153137

> <HYBRID receptor title>
5S18(A) > WOY(A-201)

> <HYBRID receptor filename>
experiments/data/docking/5s18.oedu

> <Dock Type>
Hybrid

$$$$
MOL0152
  -OEChem-07032415493D

 24 24  0     0  0  0  0  0  0999 V2000
   -3.1769   14.7700   -1.1453 C   0  0  0  0  0  0  0  0  0  0  0  0
   -4.7706   14.9075    0.6429 C   0  0  0  0  0  0  0  0  0  0  0  0
   -4.5456   14.8528   -0.6769 C   0  0  0  0  0  0  0  0  0  0  0  0
   -2.1266   14.7457   -0.3067 C   0  0  0  0  0  0  0  0  0  0  0  0
   -2.3999   14.8081    1.1727 C   0  0  0  0  0  0  0  0  0  0  0  0
   -5.4732   16.0742   -2.6246 C   0  0  0  0  0  0  0  0  0  0  0  0
   -7.0080   14.8634   -1.0353 C   0  0  0  0  0  0  0  0  0  0  0  0
   -5.6356   14.8728   -1.7007 C   0  0  0  0  0  0  0  0  0  0  0  0
   -3.7338   14.8860    1.5387 N   0  0  0  0  0  0  0  0  0  0  0  0
   -0.8186   14.6687   -0.6827 N   0  0  0  0  0  0  0  0  0  0  0  0
   -1.4805   14.7895    1.9891 O   0  0  0  0  0  0  0  0  0  0  0  0
   -5.4683   13.6892   -2.4714 O   0  0  0  0  0  0  0  0  0  0  0  0
   -3.0176   14.7271   -2.2194 H   0  0  0  0  0  0  0  0  0  0  0  0
   -5.7619   14.9706    1.0744 H   0  0  0  0  0  0  0  0  0  0  0  0
   -6.2677   16.0985   -3.3796 H   0  0  0  0  0  0  0  0  0  0  0  0
   -4.5112   16.0518   -3.1481 H   0  0  0  0  0  0  0  0  0  0  0  0
   -5.5460   17.0138   -2.0656 H   0  0  0  0  0  0  0  0  0  0  0  0
   -7.8083   14.8780   -1.7833 H   0  0  0  0  0  0  0  0  0  0  0  0
   -7.1506   13.9520   -0.4420 H   0  0  0  0  0  0  0  0  0  0  0  0
   -7.1356   15.7221   -0.3670 H   0  0  0  0  0  0  0  0  0  0  0  0
   -3.9563   14.9296    2.5288 H   0  0  0  0  0  0  0  0  0  0  0  0
   -0.6018   14.6262   -1.6552 H   0  0  0  0  0  0  0  0  0  0  0  0
   -0.1170   14.6574    0.0255 H   0  0  0  0  0  0  0  0  0  0  0  0
   -6.1711   13.6905   -3.1407 H   0  0  0  0  0  0  0  0  0  0  0  0
  1  3  1  0  0  0  0
  1  4  2  0  0  0  0
  2  3  2  0  0  0  0
  2  9  1  0  0  0  0
  3  8  1  0  0  0  0
  4  5  1  0  0  0  0
  4 10  1  0  0  0  0
  5  9  1  0  0  0  0
  5 11  2  0  0  0  0
  6  8  1  0  0  0  0
  7  8  1  0  0  0  0
  8 12  1  0  0  0  0
  1 13  1  0  0  0  0
  2 14  1  0  0  0  0
  6 15  1  0  0  0  0
  6 16  1  0  0  0  0
  6 17  1  0  0  0  0
  7 18  1  0  0  0  0
  7 19  1  0  0  0  0
  7 20  1  0  0  0  0
  9 21  1  0  0  0  0
 10 22  1  0  0  0  0
 10 23  1  0  0  0  0
 12 24  1  0  0  0  0
M  END
> <HYBRID receptor title>
5S18(A) > WOY(A-201)

> <HYBRID receptor filename>
experiments/data/docking/5s18.oedu

> <HYBRID Chemgauss4 score>
-6.150277

> <HYBRID receptor title>
5S18(A) > WOY(A-201)

> <HYBRID receptor filename>
experiments/data/docking/5s18.oedu

> <Dock Type>
Hybrid

$$$$
MOL0171
  -OEChem-07032415493D

 25 25  0     0  0  0  0  0  0999 V2000
   -3.0262   14.8119   -0.8989 C   0  0  0  0  0  0  0  0  0  0  0  0
   -4.6203   14.9430    0.8896 C   0  0  0  0  0  0  0  0  0  0  0  0
   -4.3951   14.8916   -0.4304 C   0  0  0  0  0  0  0  0  0  0  0  0
   -1.9760   14.7873   -0.0602 C   0  0  0  0  0  0  0  0  0  0  0  0
   -2.2495   14.8460    1.4193 C   0  0  0  0  0  0  0  0  0  0  0  0
   -6.8472   14.9983   -0.7664 C   0  0  0  0  0  0  0  0  0  0  0  0
   -5.3992   13.6752   -2.3461 C   0  0  0  0  0  0  0  0  0  0  0  0
   -5.4851   14.9122   -1.4542 C   0  0  0  0  0  0  0  0  0  0  0  0
   -3.5835   14.9210    1.7853 N   0  0  0  0  0  0  0  0  0  0  0  0
   -0.6678   14.7131   -0.4362 N   0  0  0  0  0  0  0  0  0  0  0  0
   -5.2294   16.1066   -2.2256 N   0  0  0  0  0  0  0  0  0  0  0  0
   -1.3302   14.8269    2.2357 O   0  0  0  0  0  0  0  0  0  0  0  0
   -2.8668   14.7716   -1.9730 H   0  0  0  0  0  0  0  0  0  0  0  0
   -5.6118   15.0037    1.3211 H   0  0  0  0  0  0  0  0  0  0  0  0
   -7.6620   15.0147   -1.4995 H   0  0  0  0  0  0  0  0  0  0  0  0
   -6.9289   15.9107   -0.1656 H   0  0  0  0  0  0  0  0  0  0  0  0
   -7.0177   14.1390   -0.1078 H   0  0  0  0  0  0  0  0  0  0  0  0
   -6.1912   13.6730   -3.1036 H   0  0  0  0  0  0  0  0  0  0  0  0
   -4.4403   13.6335   -2.8757 H   0  0  0  0  0  0  0  0  0  0  0  0
   -5.4874   12.7566   -1.7560 H   0  0  0  0  0  0  0  0  0  0  0  0
   -3.8062   14.9621    2.7756 H   0  0  0  0  0  0  0  0  0  0  0  0
   -0.4510   14.6731   -1.4088 H   0  0  0  0  0  0  0  0  0  0  0  0
    0.0337   14.7012    0.2719 H   0  0  0  0  0  0  0  0  0  0  0  0
   -4.2917   16.0639   -2.6286 H   0  0  0  0  0  0  0  0  0  0  0  0
   -5.2307   16.9228   -1.6108 H   0  0  0  0  0  0  0  0  0  0  0  0
  1  3  1  0  0  0  0
  1  4  2  0  0  0  0
  2  3  2  0  0  0  0
  2  9  1  0  0  0  0
  3  8  1  0  0  0  0
  4  5  1  0  0  0  0
  4 10  1  0  0  0  0
  5  9  1  0  0  0  0
  5 12  2  0  0  0  0
  6  8  1  0  0  0  0
  7  8  1  0  0  0  0
  8 11  1  0  0  0  0
  1 13  1  0  0  0  0
  2 14  1  0  0  0  0
  6 15  1  0  0  0  0
  6 16  1  0  0  0  0
  6 17  1  0  0  0  0
  7 18  1  0  0  0  0
  7 19  1  0  0  0  0
  7 20  1  0  0  0  0
  9 21  1  0  0  0  0
 10 22  1  0  0  0  0
 10 23  1  0  0  0  0
 11 24  1  0  0  0  0
 11 25  1  0  0  0  0
M  END
> <HYBRID receptor title>
5S18(A) > WOY(A-201)

> <HYBRID receptor filename>
experiments/data/docking/5s18.oedu

> <HYBRID Chemgauss4 score>
-6.146571

> <HYBRID receptor title>
5S18(A) > WOY(A-201)

> <HYBRID receptor filename>
experiments/data/docking/5s18.oedu

> <Dock Type>
Hybrid

$$$$
MOL0109
  -OEChem-07032415493D

 19 19  0     0  0  0  0  0  0999 V2000
   -4.1069   14.7386   -1.3127 C   0  0  0  0  0  0  0  0  0  0  0  0
   -5.1967   14.4832    0.8166 C   0  0  0  0  0  0  0  0  0  0  0  0
   -5.2928   14.5466   -0.5153 C   0  0  0  0  0  0  0  0  0  0  0  0
   -2.8880   14.8587   -0.7571 C   0  0  0  0  0  0  0  0  0  0  0  0
   -2.7838   14.7872    0.7457 C   0  0  0  0  0  0  0  0  0  0  0  0
   -6.6147   14.4169   -1.1280 C   0  0  0  0  0  0  0  0  0  0  0  0
   -7.6598   15.4354   -0.7482 C   0  0  0  0  0  0  0  0  0  0  0  0
   -3.9755   14.6006    1.4296 N   0  0  0  0  0  0  0  0  0  0  0  0
   -1.7234   15.0418   -1.4413 N   0  0  0  0  0  0  0  0  0  0  0  0
   -1.6964   14.8908    1.3107 O   0  0  0  0  0  0  0  0  0  0  0  0
   -6.8199   13.4935   -1.9184 O   0  0  0  0  0  0  0  0  0  0  0  0
   -4.2240   14.7850   -2.3916 H   0  0  0  0  0  0  0  0  0  0  0  0
   -6.0411   14.3408    1.4800 H   0  0  0  0  0  0  0  0  0  0  0  0
   -7.6077   16.2821   -1.4382 H   0  0  0  0  0  0  0  0  0  0  0  0
   -8.6588   14.9946   -0.8078 H   0  0  0  0  0  0  0  0  0  0  0  0
   -7.4835   15.7700    0.2770 H   0  0  0  0  0  0  0  0  0  0  0  0
   -3.9529   14.5463    2.4437 H   0  0  0  0  0  0  0  0  0  0  0  0
   -1.7563   15.0938   -2.4367 H   0  0  0  0  0  0  0  0  0  0  0  0
   -0.8730   15.1184   -0.9268 H   0  0  0  0  0  0  0  0  0  0  0  0
  1  3  1  0  0  0  0
  1  4  2  0  0  0  0
  2  3  2  0  0  0  0
  2  8  1  0  0  0  0
  3  6  1  0  0  0  0
  4  5  1  0  0  0  0
  4  9  1  0  0  0  0
  5  8  1  0  0  0  0
  5 10  2  0  0  0  0
  6  7  1  0  0  0  0
  6 11  2  0  0  0  0
  1 12  1  0  0  0  0
  2 13  1  0  0  0  0
  7 14  1  0  0  0  0
  7 15  1  0  0  0  0
  7 16  1  0  0  0  0
  8 17  1  0  0  0  0
  9 18  1  0  0  0  0
  9 19  1  0  0  0  0
M  END
> <HYBRID receptor title>
5S18(A) > WOY(A-201)

> <HYBRID receptor filename>
experiments/data/docking/5s18.oedu

> <HYBRID Chemgauss4 score>
-6.111028

> <HYBRID receptor title>
5S18(A) > WOY(A-201)

> <HYBRID receptor filename>
experiments/data/docking/5s18.oedu

> <Dock Type>
Hybrid

$$$$
MOL0203
  -OEChem-07032415493D

 16 16  0     0  0  0  0  0  0999 V2000
   -4.5327   14.4532   -0.6865 C   0  0  0  0  0  0  0  0  0  0  0  0
   -4.9055   14.5604    0.5956 C   0  0  0  0  0  0  0  0  0  0  0  0
   -2.3127   14.8737   -0.2790 C   0  0  0  0  0  0  0  0  0  0  0  0
   -2.6263   15.0182    1.2040 C   0  0  0  0  0  0  0  0  0  0  0  0
   -6.3087   14.3925    1.0793 C   0  0  0  0  0  0  0  0  0  0  0  0
   -3.2512   14.6041   -1.1442 N   0  0  0  0  0  0  0  0  0  0  0  0
   -3.9506   14.8426    1.5352 N   0  0  0  0  0  0  0  0  0  0  0  0
   -0.9993   15.0433   -0.6372 N   0  0  0  0  0  0  0  0  0  0  0  0
   -1.7199   15.2717    1.9840 O   0  0  0  0  0  0  0  0  0  0  0  0
   -5.2676   14.2307   -1.4535 H   0  0  0  0  0  0  0  0  0  0  0  0
   -6.4898   13.3477    1.3309 H   0  0  0  0  0  0  0  0  0  0  0  0
   -7.0077   14.7014    0.3023 H   0  0  0  0  0  0  0  0  0  0  0  0
   -6.4705   15.0088    1.9635 H   0  0  0  0  0  0  0  0  0  0  0  0
   -4.2343   14.9242    2.5071 H   0  0  0  0  0  0  0  0  0  0  0  0
   -0.3401   15.2468    0.0772 H   0  0  0  0  0  0  0  0  0  0  0  0
   -0.7588   14.9560   -1.5964 H   0  0  0  0  0  0  0  0  0  0  0  0
  1  2  2  0  0  0  0
  1  6  1  0  0  0  0
  2  5  1  0  0  0  0
  2  7  1  0  0  0  0
  3  4  1  0  0  0  0
  3  6  2  0  0  0  0
  3  8  1  0  0  0  0
  4  7  1  0  0  0  0
  4  9  2  0  0  0  0
  1 10  1  0  0  0  0
  5 11  1  0  0  0  0
  5 12  1  0  0  0  0
  5 13  1  0  0  0  0
  7 14  1  0  0  0  0
  8 15  1  0  0  0  0
  8 16  1  0  0  0  0
M  END
> <HYBRID receptor title>
5S18(A) > WOY(A-201)

> <HYBRID receptor filename>
experiments/data/docking/5s18.oedu

> <HYBRID Chemgauss4 score>
-6.107473

> <HYBRID receptor title>
5S18(A) > WOY(A-201)

> <HYBRID receptor filename>
experiments/data/docking/5s18.oedu

> <Dock Type>
Hybrid

$$$$
MOL0064
  -OEChem-07032415493D

 19 19  0     0  0  0  0  0  0999 V2000
   -2.7958   14.8411   -1.0280 C   0  0  0  0  0  0  0  0  0  0  0  0
   -4.1570   14.5864   -0.5856 C   0  0  0  0  0  0  0  0  0  0  0  0
   -1.7764   15.0522   -0.1825 C   0  0  0  0  0  0  0  0  0  0  0  0
   -4.4389   14.5556    0.7379 C   0  0  0  0  0  0  0  0  0  0  0  0
   -2.0787   15.0194    1.2824 C   0  0  0  0  0  0  0  0  0  0  0  0
   -5.1453   14.3757   -1.6999 C   0  0  0  0  0  0  0  0  0  0  0  0
   -3.3948   14.7722    1.6225 N   0  0  0  0  0  0  0  0  0  0  0  0
   -0.4843   15.2948   -0.5409 N   0  0  0  0  0  0  0  0  0  0  0  0
   -5.6862   14.3248    1.2542 N   0  0  0  0  0  0  0  0  0  0  0  0
   -1.1947   15.2039    2.1172 O   0  0  0  0  0  0  0  0  0  0  0  0
   -4.5390   14.4711   -2.8986 F   0  0  0  0  0  0  0  0  0  0  0  0
   -5.7141   13.1583   -1.6140 F   0  0  0  0  0  0  0  0  0  0  0  0
   -6.1238   15.2995   -1.6502 F   0  0  0  0  0  0  0  0  0  0  0  0
   -2.6152   14.8573   -2.1001 H   0  0  0  0  0  0  0  0  0  0  0  0
   -3.6177   14.7467    2.6135 H   0  0  0  0  0  0  0  0  0  0  0  0
   -0.2533   15.3224   -1.5109 H   0  0  0  0  0  0  0  0  0  0  0  0
    0.1931   15.4379    0.1767 H   0  0  0  0  0  0  0  0  0  0  0  0
   -6.4375   14.1689    0.6220 H   0  0  0  0  0  0  0  0  0  0  0  0
   -5.7951   14.3213    2.2421 H   0  0  0  0  0  0  0  0  0  0  0  0
  1  2  1  0  0  0  0
  1  3  2  0  0  0  0
  2  4  2  0  0  0  0
  2  6  1  0  0  0  0
  3  5  1  0  0  0  0
  3  8  1  0  0  0  0
  4  7  1  0  0  0  0
  4  9  1  0  0  0  0
  5  7  1  0  0  0  0
  5 10  2  0  0  0  0
  6 11  1  0  0  0  0
  6 12  1  0  0  0  0
  6 13  1  0  0  0  0
  1 14  1  0  0  0  0
  7 15  1  0  0  0  0
  8 16  1  0  0  0  0
  8 17  1  0  0  0  0
  9 18  1  0  0  0  0
  9 19  1  0  0  0  0
M  END
> <HYBRID receptor title>
5S18(A) > WOY(A-201)

> <HYBRID receptor filename>
experiments/data/docking/5s18.oedu

> <HYBRID Chemgauss4 score>
-6.106434

> <HYBRID receptor title>
5S18(A) > WOY(A-201)

> <HYBRID receptor filename>
experiments/data/docking/5s18.oedu

> <Dock Type>
Hybrid

$$$$
MOL0071
  -OEChem-07032415493D

 23 23  0     0  0  0  0  0  0999 V2000
   -1.0312   14.4296   -1.1834 C   0  0  0  0  0  0  0  0  0  0  0  0
   -2.4113   14.8860   -1.2243 C   0  0  0  0  0  0  0  0  0  0  0  0
   -0.3417   14.2727   -0.0425 C   0  0  0  0  0  0  0  0  0  0  0  0
   -3.0388   15.1606   -0.0624 C   0  0  0  0  0  0  0  0  0  0  0  0
   -1.0441   14.5869    1.2443 C   0  0  0  0  0  0  0  0  0  0  0  0
   -4.4588   15.6211    0.0927 C   0  0  0  0  0  0  0  0  0  0  0  0
   -2.9924   15.0152   -2.6029 C   0  0  0  0  0  0  0  0  0  0  0  0
   -5.4424   14.4921   -0.0945 C   0  0  0  0  0  0  0  0  0  0  0  0
   -2.3561   15.0098    1.1295 N   0  0  0  0  0  0  0  0  0  0  0  0
    0.9503   13.8493    0.0504 N   0  0  0  0  0  0  0  0  0  0  0  0
   -0.4706   14.4682    2.3258 O   0  0  0  0  0  0  0  0  0  0  0  0
   -2.0861   14.6710   -3.5388 F   0  0  0  0  0  0  0  0  0  0  0  0
   -4.0677   14.2171   -2.7507 F   0  0  0  0  0  0  0  0  0  0  0  0
   -3.3789   16.2837   -2.8431 F   0  0  0  0  0  0  0  0  0  0  0  0
   -5.3477   13.9443   -1.3250 F   0  0  0  0  0  0  0  0  0  0  0  0
   -6.7152   14.9033    0.0856 F   0  0  0  0  0  0  0  0  0  0  0  0
   -5.1990   13.5132    0.8068 F   0  0  0  0  0  0  0  0  0  0  0  0
   -0.5517   14.2092   -2.1341 H   0  0  0  0  0  0  0  0  0  0  0  0
   -4.6508   16.4042   -0.6441 H   0  0  0  0  0  0  0  0  0  0  0  0
   -4.5731   16.0594    1.0861 H   0  0  0  0  0  0  0  0  0  0  0  0
   -2.8587   15.2268    1.9860 H   0  0  0  0  0  0  0  0  0  0  0  0
    1.4446   13.6321   -0.7883 H   0  0  0  0  0  0  0  0  0  0  0  0
    1.3641   13.7690    0.9539 H   0  0  0  0  0  0  0  0  0  0  0  0
  1  2  1  0  0  0  0
  1  3  2  0  0  0  0
  2  4  2  0  0  0  0
  2  7  1  0  0  0  0
  3  5  1  0  0  0  0
  3 10  1  0  0  0  0
  4  6  1  0  0  0  0
  4  9  1  0  0  0  0
  5  9  1  0  0  0  0
  5 11  2  0  0  0  0
  6  8  1  0  0  0  0
  7 12  1  0  0  0  0
  7 13  1  0  0  0  0
  7 14  1  0  0  0  0
  8 15  1  0  0  0  0
  8 16  1  0  0  0  0
  8 17  1  0  0  0  0
  1 18  1  0  0  0  0
  6 19  1  0  0  0  0
  6 20  1  0  0  0  0
  9 21  1  0  0  0  0
 10 22  1  0  0  0  0
 10 23  1  0  0  0  0
M  END
> <HYBRID receptor title>
5S18(A) > WOY(A-201)

> <HYBRID receptor filename>
experiments/data/docking/5s18.oedu

> <HYBRID Chemgauss4 score>
-6.089174

> <HYBRID receptor title>
5S18(A) > WOY(A-201)

> <HYBRID receptor filename>
experiments/data/docking/5s18.oedu

> <Dock Type>
Hybrid

$$$$
MOL0090
  -OEChem-07032415493D

 22 22  0     0  0  0  0  0  0999 V2000
   -3.3097   14.7027   -1.2482 C   0  0  0  0  0  0  0  0  0  0  0  0
   -4.9521   15.0693    0.5077 C   0  0  0  0  0  0  0  0  0  0  0  0
   -2.3456   14.6342   -0.3233 C   0  0  0  0  0  0  0  0  0  0  0  0
   -4.6509   14.9288   -0.7868 C   0  0  0  0  0  0  0  0  0  0  0  0
   -2.6089   14.7803    1.1339 C   0  0  0  0  0  0  0  0  0  0  0  0
   -7.8323   15.2173   -2.7327 C   0  0  0  0  0  0  0  0  0  0  0  0
   -7.0102   15.2154   -1.4554 C   0  0  0  0  0  0  0  0  0  0  0  0
   -3.9491   14.9963    1.4508 N   0  0  0  0  0  0  0  0  0  0  0  0
   -1.0321   14.4224   -0.6481 N   0  0  0  0  0  0  0  0  0  0  0  0
   -5.6231   14.9951   -1.7526 N   0  0  0  0  0  0  0  0  0  0  0  0
   -1.7146   14.7145    1.9729 O   0  0  0  0  0  0  0  0  0  0  0  0
   -3.1026   14.5942   -2.3073 H   0  0  0  0  0  0  0  0  0  0  0  0
   -5.9511   15.2408    0.8887 H   0  0  0  0  0  0  0  0  0  0  0  0
   -7.7250   14.2594   -3.2513 H   0  0  0  0  0  0  0  0  0  0  0  0
   -7.5043   16.0085   -3.4154 H   0  0  0  0  0  0  0  0  0  0  0  0
   -8.8959   15.3682   -2.5189 H   0  0  0  0  0  0  0  0  0  0  0  0
   -7.1226   16.1762   -0.9428 H   0  0  0  0  0  0  0  0  0  0  0  0
   -7.3715   14.4315   -0.7818 H   0  0  0  0  0  0  0  0  0  0  0  0
   -4.2001   15.1058    2.4290 H   0  0  0  0  0  0  0  0  0  0  0  0
   -0.7940   14.3169   -1.6076 H   0  0  0  0  0  0  0  0  0  0  0  0
   -0.3645   14.3821    0.0870 H   0  0  0  0  0  0  0  0  0  0  0  0
   -5.3353   14.8851   -2.7065 H   0  0  0  0  0  0  0  0  0  0  0  0
  1  3  2  0  0  0  0
  1  4  1  0  0  0  0
  2  4  2  0  0  0  0
  2  8  1  0  0  0  0
  3  5  1  0  0  0  0
  3  9  1  0  0  0  0
  4 10  1  0  0  0  0
  5  8  1  0  0  0  0
  5 11  2  0  0  0  0
  6  7  1  0  0  0  0
  7 10  1  0  0  0  0
  1 12  1  0  0  0  0
  2 13  1  0  0  0  0
  6 14  1  0  0  0  0
  6 15  1  0  0  0  0
  6 16  1  0  0  0  0
  7 17  1  0  0  0  0
  7 18  1  0  0  0  0
  8 19  1  0  0  0  0
  9 20  1  0  0  0  0
  9 21  1  0  0  0  0
 10 22  1  0  0  0  0
M  END
> <HYBRID receptor title>
5S18(A) > WOY(A-201)

> <HYBRID receptor filename>
experiments/data/docking/5s18.oedu

> <HYBRID Chemgauss4 score>
-6.086112

> <HYBRID receptor title>
5S18(A) > WOY(A-201)

> <HYBRID receptor filename>
experiments/data/docking/5s18.oedu

> <Dock Type>
Hybrid

$$$$
MOL0184
  -OEChem-07032415493D

 23 23  0     0  0  0  0  0  0999 V2000
   -3.9365   14.7993    0.6241 C   0  0  0  0  0  0  0  0  0  0  0  0
   -2.7315   14.4289   -1.4505 C   0  0  0  0  0  0  0  0  0  0  0  0
   -3.8919   14.5268   -0.7916 C   0  0  0  0  0  0  0  0  0  0  0  0
   -2.8367   15.0139    1.3567 C   0  0  0  0  0  0  0  0  0  0  0  0
   -1.5146   14.9549    0.6631 C   0  0  0  0  0  0  0  0  0  0  0  0
   -5.2124   14.3611   -1.4833 C   0  0  0  0  0  0  0  0  0  0  0  0
   -0.4943   14.8206   -3.1554 C   0  0  0  0  0  0  0  0  0  0  0  0
   -1.5164   14.5886   -0.7250 N   0  0  0  0  0  0  0  0  0  0  0  0
   -2.8192   15.2878    2.6920 N   0  0  0  0  0  0  0  0  0  0  0  0
   -0.4791   15.2011    1.2753 O   0  0  0  0  0  0  0  0  0  0  0  0
    0.2604   12.9201   -1.5455 O   0  0  0  0  0  0  0  0  0  0  0  0
    0.9346   15.3027   -1.0346 O   0  0  0  0  0  0  0  0  0  0  0  0
   -6.2321   14.5045   -0.6132 F   0  0  0  0  0  0  0  0  0  0  0  0
   -5.3671   15.2781   -2.4591 F   0  0  0  0  0  0  0  0  0  0  0  0
   -5.3122   13.1386   -2.0429 F   0  0  0  0  0  0  0  0  0  0  0  0
   -1.3041   15.9078   -3.1384 F   0  0  0  0  0  0  0  0  0  0  0  0
    0.5855   15.1365   -3.9099 F   0  0  0  0  0  0  0  0  0  0  0  0
   -1.1630   13.8334   -3.8000 F   0  0  0  0  0  0  0  0  0  0  0  0
   -0.0327   14.3395   -1.5218 S   0  0  0  0  0  0  0  0  0  0  0  0
   -4.9151   14.8354    1.0960 H   0  0  0  0  0  0  0  0  0  0  0  0
   -2.6717   14.2245   -2.5130 H   0  0  0  0  0  0  0  0  0  0  0  0
   -3.6865   15.3366    3.1818 H   0  0  0  0  0  0  0  0  0  0  0  0
   -1.9400   15.4311    3.1395 H   0  0  0  0  0  0  0  0  0  0  0  0
  1  3  1  0  0  0  0
  1  4  2  0  0  0  0
  2  3  2  0  0  0  0
  2  8  1  0  0  0  0
  3  6  1  0  0  0  0
  4  5  1  0  0  0  0
  4  9  1  0  0  0  0
  5  8  1  0  0  0  0
  5 10  2  0  0  0  0
  6 13  1  0  0  0  0
  6 14  1  0  0  0  0
  6 15  1  0  0  0  0
  7 16  1  0  0  0  0
  7 17  1  0  0  0  0
  7 18  1  0  0  0  0
  7 19  1  0  0  0  0
  8 19  1  0  0  0  0
 11 19  2  0  0  0  0
 12 19  2  0  0  0  0
  1 20  1  0  0  0  0
  2 21  1  0  0  0  0
  9 22  1  0  0  0  0
  9 23  1  0  0  0  0
M  END
> <HYBRID receptor title>
5S18(A) > WOY(A-201)

> <HYBRID receptor filename>
experiments/data/docking/5s18.oedu

> <HYBRID Chemgauss4 score>
-6.073879

> <HYBRID receptor title>
5S18(A) > WOY(A-201)

> <HYBRID receptor filename>
experiments/data/docking/5s18.oedu

> <Dock Type>
Hybrid

$$$$
MOL0135
  -OEChem-07032415493D

 26 26  0     0  0  0  0  0  0999 V2000
    0.1108   14.6162   -0.5525 C   0  0  0  0  0  0  0  0  0  0  0  0
   -2.0783   14.9100   -1.4850 C   0  0  0  0  0  0  0  0  0  0  0  0
   -0.7811   14.6447   -1.6886 C   0  0  0  0  0  0  0  0  0  0  0  0
   -0.3137   14.8472    0.7004 C   0  0  0  0  0  0  0  0  0  0  0  0
   -1.7755   15.1466    0.9222 C   0  0  0  0  0  0  0  0  0  0  0  0
   -4.0113   15.4365   -0.1133 C   0  0  0  0  0  0  0  0  0  0  0  0
   -0.1983   14.3737   -3.0398 C   0  0  0  0  0  0  0  0  0  0  0  0
   -4.8461   14.2928   -0.6606 C   0  0  0  0  0  0  0  0  0  0  0  0
   -6.2597   14.2911   -0.1368 C   0  0  0  0  0  0  0  0  0  0  0  0
   -2.5835   15.1566   -0.2221 N   0  0  0  0  0  0  0  0  0  0  0  0
    0.4798   14.8337    1.8099 N   0  0  0  0  0  0  0  0  0  0  0  0
   -2.1833   15.3622    2.0642 O   0  0  0  0  0  0  0  0  0  0  0  0
    1.1278   14.1378   -2.9569 F   0  0  0  0  0  0  0  0  0  0  0  0
   -0.7737   13.2962   -3.6129 F   0  0  0  0  0  0  0  0  0  0  0  0
   -0.3795   15.4256   -3.8656 F   0  0  0  0  0  0  0  0  0  0  0  0
   -4.8820   14.3639   -2.0153 F   0  0  0  0  0  0  0  0  0  0  0  0
   -4.2607   13.1104   -0.3430 F   0  0  0  0  0  0  0  0  0  0  0  0
   -6.9046   15.4317   -0.4628 F   0  0  0  0  0  0  0  0  0  0  0  0
   -6.2710   14.1816    1.2094 F   0  0  0  0  0  0  0  0  0  0  0  0
   -6.9663   13.2573   -0.6400 F   0  0  0  0  0  0  0  0  0  0  0  0
    1.1583   14.3978   -0.7418 H   0  0  0  0  0  0  0  0  0  0  0  0
   -2.7901   14.9434   -2.3032 H   0  0  0  0  0  0  0  0  0  0  0  0
   -4.2232   15.6039    0.9473 H   0  0  0  0  0  0  0  0  0  0  0  0
   -4.1962   16.3607   -0.6685 H   0  0  0  0  0  0  0  0  0  0  0  0
    1.4513   14.6393    1.6999 H   0  0  0  0  0  0  0  0  0  0  0  0
    0.0643   15.0186    2.6964 H   0  0  0  0  0  0  0  0  0  0  0  0
  1  3  1  0  0  0  0
  1  4  2  0  0  0  0
  2  3  2  0  0  0  0
  2 10  1  0  0  0  0
  3  7  1  0  0  0  0
  4  5  1  0  0  0  0
  4 11  1  0  0  0  0
  5 10  1  0  0  0  0
  5 12  2  0  0  0  0
  6  8  1  0  0  0  0
  6 10  1  0  0  0  0
  7 13  1  0  0  0  0
  7 14  1  0  0  0  0
  7 15  1  0  0  0  0
  8  9  1  0  0  0  0
  8 16  1  0  0  0  0
  8 17  1  0  0  0  0
  9 18  1  0  0  0  0
  9 19  1  0  0  0  0
  9 20  1  0  0  0  0
  1 21  1  0  0  0  0
  2 22  1  0  0  0  0
  6 23  1  0  0  0  0
  6 24  1  0  0  0  0
 11 25  1  0  0  0  0
 11 26  1  0  0  0  0
M  END
> <HYBRID receptor title>
5S18(A) > WOY(A-201)

> <HYBRID receptor filename>
experiments/data/docking/5s18.oedu

> <HYBRID Chemgauss4 score>
-6.073529

> <HYBRID receptor title>
5S18(A) > WOY(A-201)

> <HYBRID receptor filename>
experiments/data/docking/5s18.oedu

> <Dock Type>
Hybrid

$$$$
MOL0094
  -OEChem-07032415493D

 15 15  0     0  0  0  0  0  0999 V2000
   -3.7211   15.2686   -0.9608 C   0  0  0  0  0  0  0  0  0  0  0  0
   -4.9299   15.3039    1.1196 C   0  0  0  0  0  0  0  0  0  0  0  0
   -2.5347   15.1001   -0.3500 C   0  0  0  0  0  0  0  0  0  0  0  0
   -4.9531   15.3741   -0.2147 C   0  0  0  0  0  0  0  0  0  0  0  0
   -2.5150   15.0221    1.1563 C   0  0  0  0  0  0  0  0  0  0  0  0
   -3.7449   15.1331    1.7867 N   0  0  0  0  0  0  0  0  0  0  0  0
   -1.3318   14.9922   -0.9823 N   0  0  0  0  0  0  0  0  0  0  0  0
   -1.4593   14.8689    1.7683 O   0  0  0  0  0  0  0  0  0  0  0  0
   -6.0925   15.5454   -0.9607 O   0  0  0  0  0  0  0  0  0  0  0  0
   -3.7800   15.3295   -2.0439 H   0  0  0  0  0  0  0  0  0  0  0  0
   -5.8167   15.3762    1.7365 H   0  0  0  0  0  0  0  0  0  0  0  0
   -3.7690   15.0850    2.8010 H   0  0  0  0  0  0  0  0  0  0  0  0
   -1.3088   15.0396   -1.9782 H   0  0  0  0  0  0  0  0  0  0  0  0
   -0.5106   14.8691   -0.4307 H   0  0  0  0  0  0  0  0  0  0  0  0
   -6.8639   15.6058   -0.3835 H   0  0  0  0  0  0  0  0  0  0  0  0
  1  3  2  0  0  0  0
  1  4  1  0  0  0  0
  2  4  2  0  0  0  0
  2  6  1  0  0  0  0
  3  5  1  0  0  0  0
  3  7  1  0  0  0  0
  4  9  1  0  0  0  0
  5  6  1  0  0  0  0
  5  8  2  0  0  0  0
  1 10  1  0  0  0  0
  2 11  1  0  0  0  0
  6 12  1  0  0  0  0
  7 13  1  0  0  0  0
  7 14  1  0  0  0  0
  9 15  1  0  0  0  0
M  END
> <HYBRID receptor title>
5S18(A) > WOY(A-201)

> <HYBRID receptor filename>
experiments/data/docking/5s18.oedu

> <HYBRID Chemgauss4 score>
-6.068488

> <HYBRID receptor title>
5S18(A) > WOY(A-201)

> <HYBRID receptor filename>
experiments/data/docking/5s18.oedu

> <Dock Type>
Hybrid

$$$$
MOL0096
  -OEChem-07032415493D

 17 17  0     0  0  0  0  0  0999 V2000
   -5.3796   14.5695   -0.9368 C   0  0  0  0  0  0  0  0  0  0  0  0
   -5.9262   14.3629    1.3949 C   0  0  0  0  0  0  0  0  0  0  0  0
   -4.0730   14.7530   -0.6788 C   0  0  0  0  0  0  0  0  0  0  0  0
   -6.3429   14.3672    0.1225 C   0  0  0  0  0  0  0  0  0  0  0  0
   -3.6117   14.7468    0.7525 C   0  0  0  0  0  0  0  0  0  0  0  0
   -3.0420   14.9664   -1.7402 C   0  0  0  0  0  0  0  0  0  0  0  0
   -4.6019   14.5468    1.7013 N   0  0  0  0  0  0  0  0  0  0  0  0
   -7.6517   14.1885   -0.2325 N   0  0  0  0  0  0  0  0  0  0  0  0
   -2.4274   14.9107    1.0378 O   0  0  0  0  0  0  0  0  0  0  0  0
   -3.5997   14.9488   -2.9694 F   0  0  0  0  0  0  0  0  0  0  0  0
   -2.4207   16.1549   -1.5876 F   0  0  0  0  0  0  0  0  0  0  0  0
   -2.0986   14.0015   -1.7022 F   0  0  0  0  0  0  0  0  0  0  0  0
   -5.7392   14.5697   -1.9619 H   0  0  0  0  0  0  0  0  0  0  0  0
   -6.5881   14.2180    2.2403 H   0  0  0  0  0  0  0  0  0  0  0  0
   -4.3418   14.5347    2.6832 H   0  0  0  0  0  0  0  0  0  0  0  0
   -7.8870   14.2047   -1.1992 H   0  0  0  0  0  0  0  0  0  0  0  0
   -8.3232   14.0484    0.4878 H   0  0  0  0  0  0  0  0  0  0  0  0
  1  3  2  0  0  0  0
  1  4  1  0  0  0  0
  2  4  2  0  0  0  0
  2  7  1  0  0  0  0
  3  5  1  0  0  0  0
  3  6  1  0  0  0  0
  4  8  1  0  0  0  0
  5  7  1  0  0  0  0
  5  9  2  0  0  0  0
  6 10  1  0  0  0  0
  6 11  1  0  0  0  0
  6 12  1  0  0  0  0
  1 13  1  0  0  0  0
  2 14  1  0  0  0  0
  7 15  1  0  0  0  0
  8 16  1  0  0  0  0
  8 17  1  0  0  0  0
M  END
> <HYBRID receptor title>
5S18(A) > WOY(A-201)

> <HYBRID receptor filename>
experiments/data/docking/5s18.oedu

> <HYBRID Chemgauss4 score>
-6.063884

> <HYBRID receptor title>
5S18(A) > WOY(A-201)

> <HYBRID receptor filename>
experiments/data/docking/5s18.oedu

> <Dock Type>
Hybrid

$$$$
MOL0404
  -OEChem-07032415493D

 32 33  0     0  0  0  0  0  0999 V2000
   -0.3689   13.4583   -4.4991 C   0  0  0  0  0  0  0  0  0  0  0  0
    0.5929   15.4732   -3.6207 C   0  0  0  0  0  0  0  0  0  0  0  0
   -0.2592   14.7481   -1.0856 C   0  0  0  0  0  0  0  0  0  0  0  0
   -0.4740   14.6669   -3.7068 C   0  0  0  0  0  0  0  0  0  0  0  0
   -1.4971   14.9620   -1.5543 C   0  0  0  0  0  0  0  0  0  0  0  0
   -2.5875   15.2140   -0.6021 C   0  0  0  0  0  0  0  0  0  0  0  0
    0.7567   13.1163   -5.1494 C   0  0  0  0  0  0  0  0  0  0  0  0
   -2.3513   15.2306    0.7319 C   0  0  0  0  0  0  0  0  0  0  0  0
    1.9446   14.0353   -5.0405 C   0  0  0  0  0  0  0  0  0  0  0  0
   -0.9444   14.9853    1.2230 C   0  0  0  0  0  0  0  0  0  0  0  0
   -1.7635   14.9439   -3.0328 C   0  0  0  0  0  0  0  0  0  0  0  0
   -3.9589   15.4484   -1.1886 C   0  0  0  0  0  0  0  0  0  0  0  0
    1.7632   15.1690   -4.2652 N   0  0  0  0  0  0  0  0  0  0  0  0
    0.0092   14.7589    0.2530 N   0  0  0  0  0  0  0  0  0  0  0  0
    0.9197   11.9962   -5.9090 N   0  0  0  0  0  0  0  0  0  0  0  0
   -3.2603   15.4500    1.7288 N   0  0  0  0  0  0  0  0  0  0  0  0
    3.0017   13.7762   -5.6127 O   0  0  0  0  0  0  0  0  0  0  0  0
   -0.6820   14.9910    2.4251 O   0  0  0  0  0  0  0  0  0  0  0  0
   -3.9153   15.3780   -2.5307 F   0  0  0  0  0  0  0  0  0  0  0  0
   -4.8296   14.5254   -0.7443 F   0  0  0  0  0  0  0  0  0  0  0  0
   -4.4177   16.6642   -0.8426 F   0  0  0  0  0  0  0  0  0  0  0  0
   -1.2462   12.8194   -4.5554 H   0  0  0  0  0  0  0  0  0  0  0  0
    0.5972   16.3937   -3.0502 H   0  0  0  0  0  0  0  0  0  0  0  0
    0.5927   14.5561   -1.7268 H   0  0  0  0  0  0  0  0  0  0  0  0
   -2.4898   14.1594   -3.2380 H   0  0  0  0  0  0  0  0  0  0  0  0
   -2.1599   15.9135   -3.3291 H   0  0  0  0  0  0  0  0  0  0  0  0
    2.5434   15.8123   -4.1689 H   0  0  0  0  0  0  0  0  0  0  0  0
    0.9684   14.5897    0.5415 H   0  0  0  0  0  0  0  0  0  0  0  0
    0.1526   11.3658   -6.0028 H   0  0  0  0  0  0  0  0  0  0  0  0
    1.8007   11.8401   -6.3487 H   0  0  0  0  0  0  0  0  0  0  0  0
   -4.2088   15.6192    1.4779 H   0  0  0  0  0  0  0  0  0  0  0  0
   -2.9439   15.4332    2.6721 H   0  0  0  0  0  0  0  0  0  0  0  0
  1  4  1  0  0  0  0
  1  7  2  0  0  0  0
  2  4  2  0  0  0  0
  2 13  1  0  0  0  0
  3  5  2  0  0  0  0
  3 14  1  0  0  0  0
  4 11  1  0  0  0  0
  5  6  1  0  0  0  0
  5 11  1  0  0  0  0
  6  8  2  0  0  0  0
  6 12  1  0  0  0  0
  7  9  1  0  0  0  0
  7 15  1  0  0  0  0
  8 10  1  0  0  0  0
  8 16  1  0  0  0  0
  9 13  1  0  0  0  0
  9 17  2  0  0  0  0
 10 14  1  0  0  0  0
 10 18  2  0  0  0  0
 12 19  1  0  0  0  0
 12 20  1  0  0  0  0
 12 21  1  0  0  0  0
  1 22  1  0  0  0  0
  2 23  1  0  0  0  0
  3 24  1  0  0  0  0
 11 25  1  0  0  0  0
 11 26  1  0  0  0  0
 13 27  1  0  0  0  0
 14 28  1  0  0  0  0
 15 29  1  0  0  0  0
 15 30  1  0  0  0  0
 16 31  1  0  0  0  0
 16 32  1  0  0  0  0
M  END
> <HYBRID receptor title>
5S18(A) > WOY(A-201)

> <HYBRID receptor filename>
experiments/data/docking/5s18.oedu

> <HYBRID Chemgauss4 score>
-6.008412

> <HYBRID receptor title>
5S18(A) > WOY(A-201)

> <HYBRID receptor filename>
experiments/data/docking/5s18.oedu

> <Dock Type>
Hybrid

$$$$
MOL0395
  -OEChem-07032415493D

 25 25  0     0  0  0  0  0  0999 V2000
   -4.7673   14.9550   -1.1804 C   0  0  0  0  0  0  0  0  0  0  0  0
   -5.5498   14.8774    1.0911 C   0  0  0  0  0  0  0  0  0  0  0  0
   -3.4868   15.0538   -0.7889 C   0  0  0  0  0  0  0  0  0  0  0  0
   -5.8476   14.8625   -0.2163 C   0  0  0  0  0  0  0  0  0  0  0  0
   -3.1615   15.0699    0.6717 C   0  0  0  0  0  0  0  0  0  0  0  0
   -2.4614   15.1412   -1.8321 C   0  0  0  0  0  0  0  0  0  0  0  0
   -0.8699   13.9198   -3.3313 C   0  0  0  0  0  0  0  0  0  0  0  0
   -2.3293   12.6444   -1.8014 C   0  0  0  0  0  0  0  0  0  0  0  0
   -7.2439   14.7542   -0.7417 C   0  0  0  0  0  0  0  0  0  0  0  0
   -4.2510   14.9777    1.5224 N   0  0  0  0  0  0  0  0  0  0  0  0
   -1.9082   13.9455   -2.3033 N   0  0  0  0  0  0  0  0  0  0  0  0
   -1.9997   15.1589    1.0615 O   0  0  0  0  0  0  0  0  0  0  0  0
   -2.1275   16.2627   -2.2359 O   0  0  0  0  0  0  0  0  0  0  0  0
   -7.2561   14.7618   -2.0912 F   0  0  0  0  0  0  0  0  0  0  0  0
   -7.8337   13.6121   -0.3309 F   0  0  0  0  0  0  0  0  0  0  0  0
   -8.0035   15.7858   -0.3166 F   0  0  0  0  0  0  0  0  0  0  0  0
   -5.0374   14.9405   -2.2326 H   0  0  0  0  0  0  0  0  0  0  0  0
   -6.2987   14.8129    1.8709 H   0  0  0  0  0  0  0  0  0  0  0  0
    0.1236   13.9600   -2.8756 H   0  0  0  0  0  0  0  0  0  0  0  0
   -0.9474   13.0038   -3.9237 H   0  0  0  0  0  0  0  0  0  0  0  0
   -0.9828   14.7749   -4.0034 H   0  0  0  0  0  0  0  0  0  0  0  0
   -3.1607   12.2539   -2.3952 H   0  0  0  0  0  0  0  0  0  0  0  0
   -1.4993   11.9340   -1.8500 H   0  0  0  0  0  0  0  0  0  0  0  0
   -2.6506   12.7276   -0.7595 H   0  0  0  0  0  0  0  0  0  0  0  0
   -4.0785   14.9847    2.5234 H   0  0  0  0  0  0  0  0  0  0  0  0
  1  3  2  0  0  0  0
  1  4  1  0  0  0  0
  2  4  2  0  0  0  0
  2 10  1  0  0  0  0
  3  5  1  0  0  0  0
  3  6  1  0  0  0  0
  4  9  1  0  0  0  0
  5 10  1  0  0  0  0
  5 12  2  0  0  0  0
  6 11  1  0  0  0  0
  6 13  2  0  0  0  0
  7 11  1  0  0  0  0
  8 11  1  0  0  0  0
  9 14  1  0  0  0  0
  9 15  1  0  0  0  0
  9 16  1  0  0  0  0
  1 17  1  0  0  0  0
  2 18  1  0  0  0  0
  7 19  1  0  0  0  0
  7 20  1  0  0  0  0
  7 21  1  0  0  0  0
  8 22  1  0  0  0  0
  8 23  1  0  0  0  0
  8 24  1  0  0  0  0
 10 25  1  0  0  0  0
M  END
> <HYBRID receptor title>
5S18(A) > WOY(A-201)

> <HYBRID receptor filename>
experiments/data/docking/5s18.oedu

> <HYBRID Chemgauss4 score>
-6.002978

> <HYBRID receptor title>
5S18(A) > WOY(A-201)

> <HYBRID receptor filename>
experiments/data/docking/5s18.oedu

> <Dock Type>
Hybrid

$$$$
MOL0366
  -OEChem-07032415493D

 29 30  0     0  0  0  0  0  0999 V2000
   -4.1546   14.9601   -1.3632 C   0  0  0  0  0  0  0  0  0  0  0  0
   -2.8100   15.1636    0.6135 C   0  0  0  0  0  0  0  0  0  0  0  0
   -2.8810   15.2216   -0.7234 C   0  0  0  0  0  0  0  0  0  0  0  0
   -5.2652   14.6626   -0.6669 C   0  0  0  0  0  0  0  0  0  0  0  0
   -5.1650   14.6020    0.8343 C   0  0  0  0  0  0  0  0  0  0  0  0
    0.9897   14.8582   -2.9265 C   0  0  0  0  0  0  0  0  0  0  0  0
    1.0625   14.1874   -1.5615 C   0  0  0  0  0  0  0  0  0  0  0  0
   -0.4256   14.5986   -3.4232 C   0  0  0  0  0  0  0  0  0  0  0  0
   -0.3153   13.5786   -1.3428 C   0  0  0  0  0  0  0  0  0  0  0  0
   -1.7113   15.5432   -1.5981 C   0  0  0  0  0  0  0  0  0  0  0  0
   -3.9138   14.8641    1.3681 N   0  0  0  0  0  0  0  0  0  0  0  0
   -1.2304   14.3126   -2.2274 N   0  0  0  0  0  0  0  0  0  0  0  0
   -6.4903   14.4070   -1.2073 N   0  0  0  0  0  0  0  0  0  0  0  0
   -6.1464   14.3348    1.5253 O   0  0  0  0  0  0  0  0  0  0  0  0
   -4.1892   15.0122   -2.4481 H   0  0  0  0  0  0  0  0  0  0  0  0
   -1.8978   15.3454    1.1682 H   0  0  0  0  0  0  0  0  0  0  0  0
    1.2020   15.9308   -2.8648 H   0  0  0  0  0  0  0  0  0  0  0  0
    1.7273   14.4084   -3.6020 H   0  0  0  0  0  0  0  0  0  0  0  0
    1.8345   13.4084   -1.5704 H   0  0  0  0  0  0  0  0  0  0  0  0
    1.3157   14.9007   -0.7701 H   0  0  0  0  0  0  0  0  0  0  0  0
   -0.8022   15.4959   -3.9514 H   0  0  0  0  0  0  0  0  0  0  0  0
   -0.4519   13.7613   -4.1434 H   0  0  0  0  0  0  0  0  0  0  0  0
   -0.3158   12.4953   -1.5616 H   0  0  0  0  0  0  0  0  0  0  0  0
   -0.6076   13.6965   -0.2809 H   0  0  0  0  0  0  0  0  0  0  0  0
   -2.0176   16.2628   -2.3584 H   0  0  0  0  0  0  0  0  0  0  0  0
   -0.9159   15.9864   -0.9980 H   0  0  0  0  0  0  0  0  0  0  0  0
   -3.8085   14.8323    2.3779 H   0  0  0  0  0  0  0  0  0  0  0  0
   -6.5919   14.4384   -2.1989 H   0  0  0  0  0  0  0  0  0  0  0  0
   -7.2487   14.1962   -0.5956 H   0  0  0  0  0  0  0  0  0  0  0  0
  1  3  1  0  0  0  0
  1  4  2  0  0  0  0
  2  3  2  0  0  0  0
  2 11  1  0  0  0  0
  3 10  1  0  0  0  0
  4  5  1  0  0  0  0
  4 13  1  0  0  0  0
  5 11  1  0  0  0  0
  5 14  2  0  0  0  0
  6  7  1  0  0  0  0
  6  8  1  0  0  0  0
  7  9  1  0  0  0  0
  8 12  1  0  0  0  0
  9 12  1  0  0  0  0
 10 12  1  0  0  0  0
  1 15  1  0  0  0  0
  2 16  1  0  0  0  0
  6 17  1  0  0  0  0
  6 18  1  0  0  0  0
  7 19  1  0  0  0  0
  7 20  1  0  0  0  0
  8 21  1  0  0  0  0
  8 22  1  0  0  0  0
  9 23  1  0  0  0  0
  9 24  1  0  0  0  0
 10 25  1  0  0  0  0
 10 26  1  0  0  0  0
 11 27  1  0  0  0  0
 13 28  1  0  0  0  0
 13 29  1  0  0  0  0
M  END
> <HYBRID receptor title>
5S18(A) > WOY(A-201)

> <HYBRID receptor filename>
experiments/data/docking/5s18.oedu

> <HYBRID Chemgauss4 score>
-5.976171

> <HYBRID receptor title>
5S18(A) > WOY(A-201)

> <HYBRID receptor filename>
experiments/data/docking/5s18.oedu

> <Dock Type>
Hybrid

$$$$
MOL0042
  -OEChem-07032415493D

 29 29  0     0  0  0  0  0  0999 V2000
   -1.5857   14.8039   -1.1373 C   0  0  0  0  0  0  0  0  0  0  0  0
   -3.5275   15.4371    0.1218 C   0  0  0  0  0  0  0  0  0  0  0  0
   -2.9580   15.2656   -1.0790 C   0  0  0  0  0  0  0  0  0  0  0  0
   -0.8643   14.5413   -0.0338 C   0  0  0  0  0  0  0  0  0  0  0  0
   -1.5219   14.7403    1.3061 C   0  0  0  0  0  0  0  0  0  0  0  0
   -3.4260   13.1338   -3.1903 C   0  0  0  0  0  0  0  0  0  0  0  0
   -5.1587   14.6321   -4.2199 C   0  0  0  0  0  0  0  0  0  0  0  0
   -5.4302   13.8302   -1.8673 C   0  0  0  0  0  0  0  0  0  0  0  0
   -3.6643   15.5260   -2.3715 C   0  0  0  0  0  0  0  0  0  0  0  0
   -4.4060   14.2892   -2.9228 C   0  0  0  0  0  0  0  0  0  0  0  0
   -2.8341   15.1834    1.2762 N   0  0  0  0  0  0  0  0  0  0  0  0
    0.4271   14.1055   -0.0208 N   0  0  0  0  0  0  0  0  0  0  0  0
   -0.9132   14.5168    2.3509 O   0  0  0  0  0  0  0  0  0  0  0  0
   -1.1438   14.6721   -2.1213 H   0  0  0  0  0  0  0  0  0  0  0  0
   -4.5469   15.7787    0.2523 H   0  0  0  0  0  0  0  0  0  0  0  0
   -2.8689   12.8590   -2.2880 H   0  0  0  0  0  0  0  0  0  0  0  0
   -2.6917   13.4103   -3.9559 H   0  0  0  0  0  0  0  0  0  0  0  0
   -3.9545   12.2416   -3.5433 H   0  0  0  0  0  0  0  0  0  0  0  0
   -5.8658   15.4540   -4.0594 H   0  0  0  0  0  0  0  0  0  0  0  0
   -4.4646   14.9405   -5.0097 H   0  0  0  0  0  0  0  0  0  0  0  0
   -5.7326   13.7768   -4.5921 H   0  0  0  0  0  0  0  0  0  0  0  0
   -6.1518   14.6230   -1.6434 H   0  0  0  0  0  0  0  0  0  0  0  0
   -4.9354   13.5555   -0.9283 H   0  0  0  0  0  0  0  0  0  0  0  0
   -5.9930   12.9572   -2.2161 H   0  0  0  0  0  0  0  0  0  0  0  0
   -2.9129   15.8735   -3.0896 H   0  0  0  0  0  0  0  0  0  0  0  0
   -4.3684   16.3488   -2.1986 H   0  0  0  0  0  0  0  0  0  0  0  0
   -3.3101   15.3288    2.1617 H   0  0  0  0  0  0  0  0  0  0  0  0
    0.8931   13.9635   -0.8910 H   0  0  0  0  0  0  0  0  0  0  0  0
    0.8681   13.9415    0.8581 H   0  0  0  0  0  0  0  0  0  0  0  0
  1  3  1  0  0  0  0
  1  4  2  0  0  0  0
  2  3  2  0  0  0  0
  2 11  1  0  0  0  0
  3  9  1  0  0  0  0
  4  5  1  0  0  0  0
  4 12  1  0  0  0  0
  5 11  1  0  0  0  0
  5 13  2  0  0  0  0
  6 10  1  0  0  0  0
  7 10  1  0  0  0  0
  8 10  1  0  0  0  0
  9 10  1  0  0  0  0
  1 14  1  0  0  0  0
  2 15  1  0  0  0  0
  6 16  1  0  0  0  0
  6 17  1  0  0  0  0
  6 18  1  0  0  0  0
  7 19  1  0  0  0  0
  7 20  1  0  0  0  0
  7 21  1  0  0  0  0
  8 22  1  0  0  0  0
  8 23  1  0  0  0  0
  8 24  1  0  0  0  0
  9 25  1  0  0  0  0
  9 26  1  0  0  0  0
 11 27  1  0  0  0  0
 12 28  1  0  0  0  0
 12 29  1  0  0  0  0
M  END
> <HYBRID receptor title>
5S18(A) > WOY(A-201)

> <HYBRID receptor filename>
experiments/data/docking/5s18.oedu

> <HYBRID Chemgauss4 score>
-5.972041

> <HYBRID receptor title>
5S18(A) > WOY(A-201)

> <HYBRID receptor filename>
experiments/data/docking/5s18.oedu

> <Dock Type>
Hybrid

$$$$
MOL0297
  -OEChem-07032415493D

 17 17  0     0  0  0  0  0  0999 V2000
   -1.1197   14.5490   -1.3368 C   0  0  0  0  0  0  0  0  0  0  0  0
   -2.2832   14.8635    0.7138 C   0  0  0  0  0  0  0  0  0  0  0  0
   -2.3270   14.6745   -0.6586 C   0  0  0  0  0  0  0  0  0  0  0  0
    0.0773   14.6154   -0.6327 C   0  0  0  0  0  0  0  0  0  0  0  0
    0.0139   14.8071    0.7381 C   0  0  0  0  0  0  0  0  0  0  0  0
   -3.6244   14.6080   -1.3825 C   0  0  0  0  0  0  0  0  0  0  0  0
   -1.1397   14.9332    1.4316 N   0  0  0  0  0  0  0  0  0  0  0  0
    1.2338   14.8763    1.4566 N   0  0  0  0  0  0  0  0  0  0  0  0
    1.2580   14.4938   -1.2931 O   0  0  0  0  0  0  0  0  0  0  0  0
   -3.4974   14.4179   -2.7307 F   0  0  0  0  0  0  0  0  0  0  0  0
   -4.3655   15.7480   -1.2461 F   0  0  0  0  0  0  0  0  0  0  0  0
   -4.4378   13.5937   -0.9581 F   0  0  0  0  0  0  0  0  0  0  0  0
   -1.1104   14.4018   -2.4139 H   0  0  0  0  0  0  0  0  0  0  0  0
   -3.1936   14.9684    1.2960 H   0  0  0  0  0  0  0  0  0  0  0  0
    2.0889   14.7330    0.9656 H   0  0  0  0  0  0  0  0  0  0  0  0
    1.2027   14.9607    2.4488 H   0  0  0  0  0  0  0  0  0  0  0  0
    1.0784   14.3672   -2.2436 H   0  0  0  0  0  0  0  0  0  0  0  0
  1  3  2  0  0  0  0
  1  4  1  0  0  0  0
  2  3  1  0  0  0  0
  2  7  2  0  0  0  0
  3  6  1  0  0  0  0
  4  5  2  0  0  0  0
  4  9  1  0  0  0  0
  5  7  1  0  0  0  0
  5  8  1  0  0  0  0
  6 10  1  0  0  0  0
  6 11  1  0  0  0  0
  6 12  1  0  0  0  0
  1 13  1  0  0  0  0
  2 14  1  0  0  0  0
  8 15  1  0  0  0  0
  8 16  1  0  0  0  0
  9 17  1  0  0  0  0
M  END
> <HYBRID receptor title>
5S18(A) > WOY(A-201)

> <HYBRID receptor filename>
experiments/data/docking/5s18.oedu

> <HYBRID Chemgauss4 score>
-5.967862

> <HYBRID receptor title>
5S18(A) > WOY(A-201)

> <HYBRID receptor filename>
experiments/data/docking/5s18.oedu

> <Dock Type>
Hybrid

$$$$
MOL0122
  -OEChem-07032415493D

 20 20  0     0  0  0  0  0  0999 V2000
    0.2764   14.8400   -0.8368 C   0  0  0  0  0  0  0  0  0  0  0  0
   -1.9504   14.6999   -1.7139 C   0  0  0  0  0  0  0  0  0  0  0  0
   -0.6317   14.6547   -1.9450 C   0  0  0  0  0  0  0  0  0  0  0  0
   -0.1540   15.0569    0.4165 C   0  0  0  0  0  0  0  0  0  0  0  0
   -1.6403   15.1078    0.6693 C   0  0  0  0  0  0  0  0  0  0  0  0
   -0.0407   14.4210   -3.2995 C   0  0  0  0  0  0  0  0  0  0  0  0
   -3.9148   14.9506   -0.3090 C   0  0  0  0  0  0  0  0  0  0  0  0
   -2.4628   14.9186   -0.4488 N   0  0  0  0  0  0  0  0  0  0  0  0
    0.6541   15.2383    1.5005 N   0  0  0  0  0  0  0  0  0  0  0  0
   -2.0541   15.3069    1.8121 O   0  0  0  0  0  0  0  0  0  0  0  0
    1.3078   14.4243   -3.2467 F   0  0  0  0  0  0  0  0  0  0  0  0
   -0.4305   13.2320   -3.8042 F   0  0  0  0  0  0  0  0  0  0  0  0
   -0.4221   15.3819   -4.1670 F   0  0  0  0  0  0  0  0  0  0  0  0
   -4.5201   14.7506   -1.5012 F   0  0  0  0  0  0  0  0  0  0  0  0
   -4.3405   13.9876    0.5391 F   0  0  0  0  0  0  0  0  0  0  0  0
   -4.3293   16.1434    0.1735 F   0  0  0  0  0  0  0  0  0  0  0  0
    1.3415   14.7981   -1.0480 H   0  0  0  0  0  0  0  0  0  0  0  0
   -2.6752   14.5671   -2.5104 H   0  0  0  0  0  0  0  0  0  0  0  0
    1.6419   15.2109    1.3697 H   0  0  0  0  0  0  0  0  0  0  0  0
    0.2324   15.3930    2.3899 H   0  0  0  0  0  0  0  0  0  0  0  0
  1  3  1  0  0  0  0
  1  4  2  0  0  0  0
  2  3  2  0  0  0  0
  2  8  1  0  0  0  0
  3  6  1  0  0  0  0
  4  5  1  0  0  0  0
  4  9  1  0  0  0  0
  5  8  1  0  0  0  0
  5 10  2  0  0  0  0
  6 11  1  0  0  0  0
  6 12  1  0  0  0  0
  6 13  1  0  0  0  0
  7  8  1  0  0  0  0
  7 14  1  0  0  0  0
  7 15  1  0  0  0  0
  7 16  1  0  0  0  0
  1 17  1  0  0  0  0
  2 18  1  0  0  0  0
  9 19  1  0  0  0  0
  9 20  1  0  0  0  0
M  END
> <HYBRID receptor title>
5S18(A) > WOY(A-201)

> <HYBRID receptor filename>
experiments/data/docking/5s18.oedu

> <HYBRID Chemgauss4 score>
-5.962596

> <HYBRID receptor title>
5S18(A) > WOY(A-201)

> <HYBRID receptor filename>
experiments/data/docking/5s18.oedu

> <Dock Type>
Hybrid

$$$$
MOL0407
  -OEChem-07032415493D

 20 21  0     0  0  0  0  0  0999 V2000
   -2.1648   15.1923   -2.8526 C   0  0  0  0  0  0  0  0  0  0  0  0
   -0.1371   14.1118   -2.1308 C   0  0  0  0  0  0  0  0  0  0  0  0
   -2.1751   14.6925   -1.5672 C   0  0  0  0  0  0  0  0  0  0  0  0
   -4.6363   14.7947   -1.1891 C   0  0  0  0  0  0  0  0  0  0  0  0
   -3.1060   14.8392    0.6562 C   0  0  0  0  0  0  0  0  0  0  0  0
   -3.2760   14.7761   -0.6750 C   0  0  0  0  0  0  0  0  0  0  0  0
   -5.7170   14.8738   -0.3932 C   0  0  0  0  0  0  0  0  0  0  0  0
   -5.4969   14.9448    1.0930 C   0  0  0  0  0  0  0  0  0  0  0  0
   -1.0130   14.0725   -1.1516 N   0  0  0  0  0  0  0  0  0  0  0  0
   -4.1768   14.9215    1.5081 N   0  0  0  0  0  0  0  0  0  0  0  0
   -7.0115   14.8950   -0.8201 N   0  0  0  0  0  0  0  0  0  0  0  0
   -6.4450   15.0183    1.8729 O   0  0  0  0  0  0  0  0  0  0  0  0
   -0.6431   14.8804   -3.5788 S   0  0  0  0  0  0  0  0  0  0  0  0
   -2.9484   15.7112   -3.3878 H   0  0  0  0  0  0  0  0  0  0  0  0
    0.8516   13.6845   -2.0352 H   0  0  0  0  0  0  0  0  0  0  0  0
   -4.7628   14.7419   -2.2679 H   0  0  0  0  0  0  0  0  0  0  0  0
   -2.1329   14.8308    1.1338 H   0  0  0  0  0  0  0  0  0  0  0  0
   -3.9791   14.9661    2.5036 H   0  0  0  0  0  0  0  0  0  0  0  0
   -7.1931   14.8490   -1.7996 H   0  0  0  0  0  0  0  0  0  0  0  0
   -7.7384   14.9559   -0.1407 H   0  0  0  0  0  0  0  0  0  0  0  0
  1  3  2  0  0  0  0
  1 13  1  0  0  0  0
  2  9  2  0  0  0  0
  2 13  1  0  0  0  0
  3  6  1  0  0  0  0
  3  9  1  0  0  0  0
  4  6  1  0  0  0  0
  4  7  2  0  0  0  0
  5  6  2  0  0  0  0
  5 10  1  0  0  0  0
  7  8  1  0  0  0  0
  7 11  1  0  0  0  0
  8 10  1  0  0  0  0
  8 12  2  0  0  0  0
  1 14  1  0  0  0  0
  2 15  1  0  0  0  0
  4 16  1  0  0  0  0
  5 17  1  0  0  0  0
 10 18  1  0  0  0  0
 11 19  1  0  0  0  0
 11 20  1  0  0  0  0
M  END
> <HYBRID receptor title>
5S18(A) > WOY(A-201)

> <HYBRID receptor filename>
experiments/data/docking/5s18.oedu

> <HYBRID Chemgauss4 score>
-5.957559

> <HYBRID receptor title>
5S18(A) > WOY(A-201)

> <HYBRID receptor filename>
experiments/data/docking/5s18.oedu

> <Dock Type>
Hybrid

$$$$
MOL0198
  -OEChem-07032415493D

 16 16  0     0  0  0  0  0  0999 V2000
   -3.6716   14.7405   -1.2363 C   0  0  0  0  0  0  0  0  0  0  0  0
   -4.9983   14.5781    0.7956 C   0  0  0  0  0  0  0  0  0  0  0  0
   -2.5623   14.8461   -0.4959 C   0  0  0  0  0  0  0  0  0  0  0  0
   -4.9193   14.6024   -0.5384 C   0  0  0  0  0  0  0  0  0  0  0  0
   -2.5762   14.8253    0.9919 C   0  0  0  0  0  0  0  0  0  0  0  0
   -3.8475   14.6875    1.5469 N   0  0  0  0  0  0  0  0  0  0  0  0
   -1.3190   14.9821   -1.0538 N   0  0  0  0  0  0  0  0  0  0  0  0
   -6.0433   14.4956   -1.3177 N   0  0  0  0  0  0  0  0  0  0  0  0
   -1.5504   14.9224    1.6599 O   0  0  0  0  0  0  0  0  0  0  0  0
   -3.6459   14.7571   -2.3204 H   0  0  0  0  0  0  0  0  0  0  0  0
   -5.9214   14.4757    1.3523 H   0  0  0  0  0  0  0  0  0  0  0  0
   -3.9304   14.6666    2.5591 H   0  0  0  0  0  0  0  0  0  0  0  0
   -1.2459   15.0024   -2.0451 H   0  0  0  0  0  0  0  0  0  0  0  0
   -0.5350   15.0557   -0.4475 H   0  0  0  0  0  0  0  0  0  0  0  0
   -5.9347   14.5190   -2.3046 H   0  0  0  0  0  0  0  0  0  0  0  0
   -6.9214   14.3988   -0.8649 H   0  0  0  0  0  0  0  0  0  0  0  0
  1  3  2  0  0  0  0
  1  4  1  0  0  0  0
  2  4  2  0  0  0  0
  2  6  1  0  0  0  0
  3  5  1  0  0  0  0
  3  7  1  0  0  0  0
  4  8  1  0  0  0  0
  5  6  1  0  0  0  0
  5  9  2  0  0  0  0
  1 10  1  0  0  0  0
  2 11  1  0  0  0  0
  6 12  1  0  0  0  0
  7 13  1  0  0  0  0
  7 14  1  0  0  0  0
  8 15  1  0  0  0  0
  8 16  1  0  0  0  0
M  END
> <HYBRID receptor title>
5S18(A) > WOY(A-201)

> <HYBRID receptor filename>
experiments/data/docking/5s18.oedu

> <HYBRID Chemgauss4 score>
-5.911525

> <HYBRID receptor title>
5S18(A) > WOY(A-201)

> <HYBRID receptor filename>
experiments/data/docking/5s18.oedu

> <Dock Type>
Hybrid

$$$$
MOL0359
  -OEChem-07032415493D

 25 25  0     0  0  0  0  0  0999 V2000
   -1.6868   15.0148   -1.3833 C   0  0  0  0  0  0  0  0  0  0  0  0
    0.6710   14.6399   -1.6222 C   0  0  0  0  0  0  0  0  0  0  0  0
   -0.5180   14.8128   -2.2156 C   0  0  0  0  0  0  0  0  0  0  0  0
   -1.6228   15.0355   -0.0407 C   0  0  0  0  0  0  0  0  0  0  0  0
   -0.2778   14.8393    0.6073 C   0  0  0  0  0  0  0  0  0  0  0  0
   -4.9204   14.8097   -0.1430 C   0  0  0  0  0  0  0  0  0  0  0  0
   -4.5443   13.3515   -0.1909 C   0  0  0  0  0  0  0  0  0  0  0  0
   -3.9242   15.8220    0.3838 C   0  0  0  0  0  0  0  0  0  0  0  0
   -0.7075   14.8088   -3.6991 C   0  0  0  0  0  0  0  0  0  0  0  0
    0.7886   14.6525   -0.2570 N   0  0  0  0  0  0  0  0  0  0  0  0
   -2.6822   15.2207    0.7968 N   0  0  0  0  0  0  0  0  0  0  0  0
   -0.1558   14.8482    1.8309 O   0  0  0  0  0  0  0  0  0  0  0  0
   -6.0313   15.1823   -0.5294 O   0  0  0  0  0  0  0  0  0  0  0  0
   -2.0031   15.0044   -4.0231 F   0  0  0  0  0  0  0  0  0  0  0  0
    0.0157   15.7845   -4.2874 F   0  0  0  0  0  0  0  0  0  0  0  0
   -0.3220   13.6312   -4.2345 F   0  0  0  0  0  0  0  0  0  0  0  0
   -2.6406   15.1525   -1.8855 H   0  0  0  0  0  0  0  0  0  0  0  0
    1.5914   14.4832   -2.1709 H   0  0  0  0  0  0  0  0  0  0  0  0
   -4.8272   12.8711    0.7500 H   0  0  0  0  0  0  0  0  0  0  0  0
   -3.4636   13.2487   -0.3181 H   0  0  0  0  0  0  0  0  0  0  0  0
   -5.0777   12.8560   -1.0055 H   0  0  0  0  0  0  0  0  0  0  0  0
   -4.3542   16.3289    1.2511 H   0  0  0  0  0  0  0  0  0  0  0  0
   -3.6988   16.5450   -0.4041 H   0  0  0  0  0  0  0  0  0  0  0  0
    1.7117   14.5169    0.1447 H   0  0  0  0  0  0  0  0  0  0  0  0
   -2.5865   14.9171    1.7516 H   0  0  0  0  0  0  0  0  0  0  0  0
  1  3  1  0  0  0  0
  1  4  2  0  0  0  0
  2  3  2  0  0  0  0
  2 10  1  0  0  0  0
  3  9  1  0  0  0  0
  4  5  1  0  0  0  0
  4 11  1  0  0  0  0
  5 10  1  0  0  0  0
  5 12  2  0  0  0  0
  6  7  1  0  0  0  0
  6  8  1  0  0  0  0
  6 13  2  0  0  0  0
  8 11  1  0  0  0  0
  9 14  1  0  0  0  0
  9 15  1  0  0  0  0
  9 16  1  0  0  0  0
  1 17  1  0  0  0  0
  2 18  1  0  0  0  0
  7 19  1  0  0  0  0
  7 20  1  0  0  0  0
  7 21  1  0  0  0  0
  8 22  1  0  0  0  0
  8 23  1  0  0  0  0
 10 24  1  0  0  0  0
 11 25  1  0  0  0  0
M  END
> <HYBRID receptor title>
5S18(A) > WOY(A-201)

> <HYBRID receptor filename>
experiments/data/docking/5s18.oedu

> <HYBRID Chemgauss4 score>
-5.905633

> <HYBRID receptor title>
5S18(A) > WOY(A-201)

> <HYBRID receptor filename>
experiments/data/docking/5s18.oedu

> <Dock Type>
Hybrid

$$$$
MOL0229
  -OEChem-07032415493D

 29 29  0     0  0  0  0  0  0999 V2000
   -4.3544   15.1143    0.5673 C   0  0  0  0  0  0  0  0  0  0  0  0
   -3.8526   14.6033   -1.7207 C   0  0  0  0  0  0  0  0  0  0  0  0
   -4.7814   14.8470   -0.7866 C   0  0  0  0  0  0  0  0  0  0  0  0
   -3.0597   15.1263    0.9235 C   0  0  0  0  0  0  0  0  0  0  0  0
   -2.0192   14.8498   -0.1332 C   0  0  0  0  0  0  0  0  0  0  0  0
   -1.7562   15.3806   -3.6089 C   0  0  0  0  0  0  0  0  0  0  0  0
   -0.1385   14.3638   -1.9851 C   0  0  0  0  0  0  0  0  0  0  0  0
   -1.8714   12.9303   -3.0887 C   0  0  0  0  0  0  0  0  0  0  0  0
   -6.2506   14.8577   -1.0696 C   0  0  0  0  0  0  0  0  0  0  0  0
   -1.5760   14.3216   -2.5164 C   0  0  0  0  0  0  0  0  0  0  0  0
   -2.5024   14.6005   -1.4242 N   0  0  0  0  0  0  0  0  0  0  0  0
   -2.5974   15.3719    2.1831 N   0  0  0  0  0  0  0  0  0  0  0  0
   -0.8267   14.8554    0.1747 O   0  0  0  0  0  0  0  0  0  0  0  0
   -6.9571   15.1294    0.0476 F   0  0  0  0  0  0  0  0  0  0  0  0
   -6.5636   15.7910   -1.9924 F   0  0  0  0  0  0  0  0  0  0  0  0
   -6.6628   13.6609   -1.5377 F   0  0  0  0  0  0  0  0  0  0  0  0
   -5.1254   15.3102    1.3076 H   0  0  0  0  0  0  0  0  0  0  0  0
   -4.1194   14.3968   -2.7519 H   0  0  0  0  0  0  0  0  0  0  0  0
   -2.7778   15.3694   -4.0047 H   0  0  0  0  0  0  0  0  0  0  0  0
   -1.5716   16.3882   -3.2175 H   0  0  0  0  0  0  0  0  0  0  0  0
   -1.0687   15.2122   -4.4448 H   0  0  0  0  0  0  0  0  0  0  0  0
    0.0148   13.6126   -1.2000 H   0  0  0  0  0  0  0  0  0  0  0  0
    0.0934   15.3417   -1.5469 H   0  0  0  0  0  0  0  0  0  0  0  0
    0.5877   14.1715   -2.7826 H   0  0  0  0  0  0  0  0  0  0  0  0
   -1.7488   12.1548   -2.3241 H   0  0  0  0  0  0  0  0  0  0  0  0
   -2.9022   12.8635   -3.4555 H   0  0  0  0  0  0  0  0  0  0  0  0
   -1.2018   12.6913   -3.9220 H   0  0  0  0  0  0  0  0  0  0  0  0
   -3.2577   15.5585    2.9062 H   0  0  0  0  0  0  0  0  0  0  0  0
   -1.6139   15.3572    2.3422 H   0  0  0  0  0  0  0  0  0  0  0  0
  1  3  1  0  0  0  0
  1  4  2  0  0  0  0
  2  3  2  0  0  0  0
  2 11  1  0  0  0  0
  3  9  1  0  0  0  0
  4  5  1  0  0  0  0
  4 12  1  0  0  0  0
  5 11  1  0  0  0  0
  5 13  2  0  0  0  0
  6 10  1  0  0  0  0
  7 10  1  0  0  0  0
  8 10  1  0  0  0  0
  9 14  1  0  0  0  0
  9 15  1  0  0  0  0
  9 16  1  0  0  0  0
 10 11  1  0  0  0  0
  1 17  1  0  0  0  0
  2 18  1  0  0  0  0
  6 19  1  0  0  0  0
  6 20  1  0  0  0  0
  6 21  1  0  0  0  0
  7 22  1  0  0  0  0
  7 23  1  0  0  0  0
  7 24  1  0  0  0  0
  8 25  1  0  0  0  0
  8 26  1  0  0  0  0
  8 27  1  0  0  0  0
 12 28  1  0  0  0  0
 12 29  1  0  0  0  0
M  END
> <HYBRID receptor title>
5S18(A) > WOY(A-201)

> <HYBRID receptor filename>
experiments/data/docking/5s18.oedu

> <HYBRID Chemgauss4 score>
-5.897877

> <HYBRID receptor title>
5S18(A) > WOY(A-201)

> <HYBRID receptor filename>
experiments/data/docking/5s18.oedu

> <Dock Type>
Hybrid

$$$$
MOL0136
  -OEChem-07032415493D

 28 29  0     0  0  0  0  0  0999 V2000
   -1.0972   14.8493   -1.2761 C   0  0  0  0  0  0  0  0  0  0  0  0
   -0.0115   14.9028    0.8628 C   0  0  0  0  0  0  0  0  0  0  0  0
   -1.1588   14.8627    0.1715 C   0  0  0  0  0  0  0  0  0  0  0  0
    0.0656   14.8751   -1.9500 C   0  0  0  0  0  0  0  0  0  0  0  0
    1.3438   14.9201   -1.1554 C   0  0  0  0  0  0  0  0  0  0  0  0
   -4.2100   15.5207   -0.7433 C   0  0  0  0  0  0  0  0  0  0  0  0
   -4.5931   14.1339   -0.2563 C   0  0  0  0  0  0  0  0  0  0  0  0
   -3.3342   16.0470    0.3835 C   0  0  0  0  0  0  0  0  0  0  0  0
   -3.3240   13.5944    0.4033 C   0  0  0  0  0  0  0  0  0  0  0  0
   -2.5145   14.8309    0.8178 C   0  0  0  0  0  0  0  0  0  0  0  0
    1.1996   14.9306    0.2223 N   0  0  0  0  0  0  0  0  0  0  0  0
    0.1911   14.8643   -3.3073 N   0  0  0  0  0  0  0  0  0  0  0  0
    2.4383   14.9452   -1.7154 O   0  0  0  0  0  0  0  0  0  0  0  0
   -2.3008   14.8672    2.2169 O   0  0  0  0  0  0  0  0  0  0  0  0
   -2.0395   14.8171   -1.8164 H   0  0  0  0  0  0  0  0  0  0  0  0
    0.0298   14.9154    1.9449 H   0  0  0  0  0  0  0  0  0  0  0  0
   -3.6380   15.4545   -1.6762 H   0  0  0  0  0  0  0  0  0  0  0  0
   -5.0834   16.1546   -0.9205 H   0  0  0  0  0  0  0  0  0  0  0  0
   -5.3940   14.2076    0.4892 H   0  0  0  0  0  0  0  0  0  0  0  0
   -4.9458   13.4895   -1.0669 H   0  0  0  0  0  0  0  0  0  0  0  0
   -2.7217   16.8926    0.0514 H   0  0  0  0  0  0  0  0  0  0  0  0
   -3.9633   16.4118    1.2056 H   0  0  0  0  0  0  0  0  0  0  0  0
   -3.5779   12.9453    1.2488 H   0  0  0  0  0  0  0  0  0  0  0  0
   -2.7830   12.9787   -0.3260 H   0  0  0  0  0  0  0  0  0  0  0  0
    2.0407   14.9606    0.7910 H   0  0  0  0  0  0  0  0  0  0  0  0
   -0.6357   14.8350   -3.8642 H   0  0  0  0  0  0  0  0  0  0  0  0
    1.1056   14.8860   -3.7035 H   0  0  0  0  0  0  0  0  0  0  0  0
   -3.1774   14.8465    2.6309 H   0  0  0  0  0  0  0  0  0  0  0  0
  1  3  1  0  0  0  0
  1  4  2  0  0  0  0
  2  3  2  0  0  0  0
  2 11  1  0  0  0  0
  3 10  1  0  0  0  0
  4  5  1  0  0  0  0
  4 12  1  0  0  0  0
  5 11  1  0  0  0  0
  5 13  2  0  0  0  0
  6  7  1  0  0  0  0
  6  8  1  0  0  0  0
  7  9  1  0  0  0  0
  8 10  1  0  0  0  0
  9 10  1  0  0  0  0
 10 14  1  0  0  0  0
  1 15  1  0  0  0  0
  2 16  1  0  0  0  0
  6 17  1  0  0  0  0
  6 18  1  0  0  0  0
  7 19  1  0  0  0  0
  7 20  1  0  0  0  0
  8 21  1  0  0  0  0
  8 22  1  0  0  0  0
  9 23  1  0  0  0  0
  9 24  1  0  0  0  0
 11 25  1  0  0  0  0
 12 26  1  0  0  0  0
 12 27  1  0  0  0  0
 14 28  1  0  0  0  0
M  END
> <HYBRID receptor title>
5S18(A) > WOY(A-201)

> <HYBRID receptor filename>
experiments/data/docking/5s18.oedu

> <HYBRID Chemgauss4 score>
-5.888504

> <HYBRID receptor title>
5S18(A) > WOY(A-201)

> <HYBRID receptor filename>
experiments/data/docking/5s18.oedu

> <Dock Type>
Hybrid

$$$$
MOL0164
  -OEChem-07032415493D

 27 28  0     0  0  0  0  0  0999 V2000
   -2.1048   14.5749   -0.9576 C   0  0  0  0  0  0  0  0  0  0  0  0
   -3.9157   15.0004    0.6091 C   0  0  0  0  0  0  0  0  0  0  0  0
   -3.4940   14.7384   -0.6318 C   0  0  0  0  0  0  0  0  0  0  0  0
   -1.2219   14.6945    0.0404 C   0  0  0  0  0  0  0  0  0  0  0  0
   -1.6204   14.9839    1.4445 C   0  0  0  0  0  0  0  0  0  0  0  0
   -5.2725   15.6984   -2.0616 C   0  0  0  0  0  0  0  0  0  0  0  0
   -4.3556   13.4645   -2.5721 C   0  0  0  0  0  0  0  0  0  0  0  0
   -6.6576   15.1351   -2.3566 C   0  0  0  0  0  0  0  0  0  0  0  0
   -5.7819   13.0034   -2.8432 C   0  0  0  0  0  0  0  0  0  0  0  0
   -2.9954   15.1209    1.6286 N   0  0  0  0  0  0  0  0  0  0  0  0
   -4.3766   14.6120   -1.6651 N   0  0  0  0  0  0  0  0  0  0  0  0
    0.1270   14.5586   -0.1541 N   0  0  0  0  0  0  0  0  0  0  0  0
   -0.7997   15.0904    2.3517 O   0  0  0  0  0  0  0  0  0  0  0  0
   -6.5781   14.0872   -3.3241 O   0  0  0  0  0  0  0  0  0  0  0  0
   -1.7993   14.3636   -1.9765 H   0  0  0  0  0  0  0  0  0  0  0  0
   -4.9539   15.1295    0.8884 H   0  0  0  0  0  0  0  0  0  0  0  0
   -4.8637   16.1738   -2.9613 H   0  0  0  0  0  0  0  0  0  0  0  0
   -5.3490   16.4661   -1.2829 H   0  0  0  0  0  0  0  0  0  0  0  0
   -3.7745   12.6317   -2.1595 H   0  0  0  0  0  0  0  0  0  0  0  0
   -3.8784   13.7731   -3.5101 H   0  0  0  0  0  0  0  0  0  0  0  0
   -7.1411   14.7603   -1.4464 H   0  0  0  0  0  0  0  0  0  0  0  0
   -7.2978   15.9208   -2.7703 H   0  0  0  0  0  0  0  0  0  0  0  0
   -5.7803   12.2260   -3.6139 H   0  0  0  0  0  0  0  0  0  0  0  0
   -6.2441   12.5765   -1.9450 H   0  0  0  0  0  0  0  0  0  0  0  0
   -3.3376   15.3202    2.5640 H   0  0  0  0  0  0  0  0  0  0  0  0
    0.4544   14.3642   -1.0726 H   0  0  0  0  0  0  0  0  0  0  0  0
    0.7295   14.6593    0.6297 H   0  0  0  0  0  0  0  0  0  0  0  0
  1  3  1  0  0  0  0
  1  4  2  0  0  0  0
  2  3  2  0  0  0  0
  2 10  1  0  0  0  0
  3 11  1  0  0  0  0
  4  5  1  0  0  0  0
  4 12  1  0  0  0  0
  5 10  1  0  0  0  0
  5 13  2  0  0  0  0
  6  8  1  0  0  0  0
  6 11  1  0  0  0  0
  7  9  1  0  0  0  0
  7 11  1  0  0  0  0
  8 14  1  0  0  0  0
  9 14  1  0  0  0  0
  1 15  1  0  0  0  0
  2 16  1  0  0  0  0
  6 17  1  0  0  0  0
  6 18  1  0  0  0  0
  7 19  1  0  0  0  0
  7 20  1  0  0  0  0
  8 21  1  0  0  0  0
  8 22  1  0  0  0  0
  9 23  1  0  0  0  0
  9 24  1  0  0  0  0
 10 25  1  0  0  0  0
 12 26  1  0  0  0  0
 12 27  1  0  0  0  0
M  END
> <HYBRID receptor title>
5S18(A) > WOY(A-201)

> <HYBRID receptor filename>
experiments/data/docking/5s18.oedu

> <HYBRID Chemgauss4 score>
-5.878503

> <HYBRID receptor title>
5S18(A) > WOY(A-201)

> <HYBRID receptor filename>
experiments/data/docking/5s18.oedu

> <Dock Type>
Hybrid

$$$$
MOL0087
  -OEChem-07032415493D

 20 20  0     0  0  0  0  0  0999 V2000
   -2.4519   14.5141   -1.0513 C   0  0  0  0  0  0  0  0  0  0  0  0
   -4.0359   14.9691    0.7037 C   0  0  0  0  0  0  0  0  0  0  0  0
   -1.4017   14.5489   -0.2123 C   0  0  0  0  0  0  0  0  0  0  0  0
   -3.7983   14.7277   -0.5884 C   0  0  0  0  0  0  0  0  0  0  0  0
   -1.6685   14.8204    1.2475 C   0  0  0  0  0  0  0  0  0  0  0  0
   -5.6001   12.9738   -1.6161 C   0  0  0  0  0  0  0  0  0  0  0  0
   -2.9966   15.0138    1.5977 N   0  0  0  0  0  0  0  0  0  0  0  0
   -0.1000   14.3571   -0.5688 N   0  0  0  0  0  0  0  0  0  0  0  0
   -0.7480   14.8633    2.0621 O   0  0  0  0  0  0  0  0  0  0  0  0
   -6.2421   15.4436   -1.0944 O   0  0  0  0  0  0  0  0  0  0  0  0
   -4.6818   14.9694   -3.0166 O   0  0  0  0  0  0  0  0  0  0  0  0
   -5.1350   14.6889   -1.6622 S   0  0  0  0  0  0  0  0  0  0  0  0
   -2.3025   14.3226   -2.1096 H   0  0  0  0  0  0  0  0  0  0  0  0
   -5.0212   15.1400    1.1196 H   0  0  0  0  0  0  0  0  0  0  0  0
   -6.4573   12.8315   -2.2758 H   0  0  0  0  0  0  0  0  0  0  0  0
   -5.8611   12.7155   -0.5890 H   0  0  0  0  0  0  0  0  0  0  0  0
   -4.7522   12.3777   -1.9565 H   0  0  0  0  0  0  0  0  0  0  0  0
   -3.2121   15.1993    2.5729 H   0  0  0  0  0  0  0  0  0  0  0  0
    0.1121   14.1746   -1.5260 H   0  0  0  0  0  0  0  0  0  0  0  0
    0.6016   14.4049    0.1378 H   0  0  0  0  0  0  0  0  0  0  0  0
  1  3  2  0  0  0  0
  1  4  1  0  0  0  0
  2  4  2  0  0  0  0
  2  7  1  0  0  0  0
  3  5  1  0  0  0  0
  3  8  1  0  0  0  0
  4 12  1  0  0  0  0
  5  7  1  0  0  0  0
  5  9  2  0  0  0  0
  6 12  1  0  0  0  0
 10 12  2  0  0  0  0
 11 12  2  0  0  0  0
  1 13  1  0  0  0  0
  2 14  1  0  0  0  0
  6 15  1  0  0  0  0
  6 16  1  0  0  0  0
  6 17  1  0  0  0  0
  7 18  1  0  0  0  0
  8 19  1  0  0  0  0
  8 20  1  0  0  0  0
M  END
> <HYBRID receptor title>
5S18(A) > WOY(A-201)

> <HYBRID receptor filename>
experiments/data/docking/5s18.oedu

> <HYBRID Chemgauss4 score>
-5.859259

> <HYBRID receptor title>
5S18(A) > WOY(A-201)

> <HYBRID receptor filename>
experiments/data/docking/5s18.oedu

> <Dock Type>
Hybrid

$$$$
MOL0208
  -OEChem-07032415493D

 32 33  0     1  0  0  0  0  0999 V2000
   -1.5689   14.5759   -1.0641 C   0  0  0  0  0  0  0  0  0  0  0  0
   -3.4863   14.1786    0.3784 C   0  0  0  0  0  0  0  0  0  0  0  0
   -2.9385   14.2055   -0.8404 C   0  0  0  0  0  0  0  0  0  0  0  0
   -0.8377   14.9008    0.0080 C   0  0  0  0  0  0  0  0  0  0  0  0
   -1.3819   14.8915    1.3930 C   0  0  0  0  0  0  0  0  0  0  0  0
   -5.2757   13.8312   -3.6790 C   0  0  0  0  0  0  0  0  0  0  0  0
   -3.3084   12.7773   -2.8383 C   0  0  0  0  0  0  0  0  0  0  0  0
   -4.0194   13.1033   -4.1546 C   0  0  2  0  0  0  0  0  0  0  0  0
   -4.8057   14.6405   -2.4613 C   0  0  1  0  0  0  0  0  0  0  0  0
   -3.1597   13.9713   -5.0718 C   0  0  0  0  0  0  0  0  0  0  0  0
   -5.9215   14.7908   -1.4357 C   0  0  0  0  0  0  0  0  0  0  0  0
   -2.7217   14.5154    1.4751 N   0  0  0  0  0  0  0  0  0  0  0  0
   -3.6632   13.8787   -1.9452 N   0  0  3  0  0  0  0  0  0  0  0  0
    0.4778   15.2696   -0.0864 N   0  0  0  0  0  0  0  0  0  0  0  0
   -0.6995   15.1912    2.3689 O   0  0  0  0  0  0  0  0  0  0  0  0
   -6.9692   15.4246   -1.9843 F   0  0  0  0  0  0  0  0  0  0  0  0
   -5.4871   15.5010   -0.3834 F   0  0  0  0  0  0  0  0  0  0  0  0
   -6.3205   13.5828   -1.0091 F   0  0  0  0  0  0  0  0  0  0  0  0
   -1.1584   14.5872   -2.0679 H   0  0  0  0  0  0  0  0  0  0  0  0
   -4.5140   13.9047    0.5816 H   0  0  0  0  0  0  0  0  0  0  0  0
   -5.6394   14.5179   -4.4577 H   0  0  0  0  0  0  0  0  0  0  0  0
   -6.0905   13.1343   -3.4431 H   0  0  0  0  0  0  0  0  0  0  0  0
   -3.6427   11.8115   -2.4415 H   0  0  0  0  0  0  0  0  0  0  0  0
   -2.2193   12.7444   -2.9660 H   0  0  0  0  0  0  0  0  0  0  0  0
   -4.2865   12.1896   -4.6684 H   0  0  0  0  0  0  0  0  0  0  0  0
   -4.4896   15.6440   -2.8018 H   0  0  0  0  0  0  0  0  0  0  0  0
   -2.8831   14.8973   -4.5647 H   0  0  0  0  0  0  0  0  0  0  0  0
   -3.7104   14.2206   -5.9805 H   0  0  0  0  0  0  0  0  0  0  0  0
   -2.2477   13.4387   -5.3503 H   0  0  0  0  0  0  0  0  0  0  0  0
   -3.1580   14.4882    2.3919 H   0  0  0  0  0  0  0  0  0  0  0  0
    0.8977   15.2946   -0.9872 H   0  0  0  0  0  0  0  0  0  0  0  0
    0.9650   15.4991    0.7489 H   0  0  0  0  0  0  0  0  0  0  0  0
  1  3  1  0  0  0  0
  1  4  2  0  0  0  0
  2  3  2  0  0  0  0
  2 12  1  0  0  0  0
  3 13  1  0  0  0  0
  4  5  1  0  0  0  0
  4 14  1  0  0  0  0
  5 12  1  0  0  0  0
  5 15  2  0  0  0  0
  6  8  1  0  0  0  0
  6  9  1  0  0  0  0
  7  8  1  0  0  0  0
  7 13  1  0  0  0  0
  8 10  1  0  0  0  0
  9 11  1  0  0  0  0
  9 13  1  0  0  0  0
 11 16  1  0  0  0  0
 11 17  1  0  0  0  0
 11 18  1  0  0  0  0
  1 19  1  0  0  0  0
  2 20  1  0  0  0  0
  6 21  1  0  0  0  0
  6 22  1  0  0  0  0
  7 23  1  0  0  0  0
  7 24  1  0  0  0  0
  8 25  1  0  0  0  0
  9 26  1  0  0  0  0
 10 27  1  0  0  0  0
 10 28  1  0  0  0  0
 10 29  1  0  0  0  0
 12 30  1  0  0  0  0
 14 31  1  0  0  0  0
 14 32  1  0  0  0  0
M  END
> <HYBRID receptor title>
5S18(A) > WOY(A-201)

> <HYBRID receptor filename>
experiments/data/docking/5s18.oedu

> <HYBRID Chemgauss4 score>
-5.857832

> <HYBRID receptor title>
5S18(A) > WOY(A-201)

> <HYBRID receptor filename>
experiments/data/docking/5s18.oedu

> <Dock Type>
Hybrid

$$$$
MOL0176
  -OEChem-07032415493D

 27 28  0     1  0  0  0  0  0999 V2000
   -7.6004   14.6996   -1.8983 C   0  0  0  0  0  0  0  0  0  0  0  0
   -6.9439   13.4703   -1.8395 C   0  0  0  0  0  0  0  0  0  0  0  0
   -6.8712   15.8697   -2.1094 C   0  0  0  0  0  0  0  0  0  0  0  0
   -5.5585   13.4110   -1.9921 C   0  0  0  0  0  0  0  0  0  0  0  0
   -5.4859   15.8104   -2.2620 C   0  0  0  0  0  0  0  0  0  0  0  0
   -4.8293   14.5811   -2.2032 C   0  0  0  0  0  0  0  0  0  0  0  0
   -1.2067   14.5643   -1.0123 C   0  0  0  0  0  0  0  0  0  0  0  0
   -3.3142   14.7454    0.1201 C   0  0  0  0  0  0  0  0  0  0  0  0
   -2.6546   14.6148   -1.0390 C   0  0  0  0  0  0  0  0  0  0  0  0
   -0.5020   14.6432    0.1297 C   0  0  0  0  0  0  0  0  0  0  0  0
   -1.2613   14.7898    1.4217 C   0  0  0  0  0  0  0  0  0  0  0  0
   -3.3339   14.5175   -2.3679 C   0  0  2  0  0  0  0  0  0  0  0  0
   -2.6416   14.8302    1.3110 N   0  0  0  0  0  0  0  0  0  0  0  0
    0.8573   14.6019    0.2223 N   0  0  0  0  0  0  0  0  0  0  0  0
   -0.6724   14.8670    2.4984 O   0  0  0  0  0  0  0  0  0  0  0  0
   -2.8532   15.4860   -3.1984 F   0  0  0  0  0  0  0  0  0  0  0  0
   -8.6789   14.7459   -1.7795 H   0  0  0  0  0  0  0  0  0  0  0  0
   -7.5116   12.5591   -1.6755 H   0  0  0  0  0  0  0  0  0  0  0  0
   -7.3822   16.8269   -2.1550 H   0  0  0  0  0  0  0  0  0  0  0  0
   -5.0557   12.4486   -1.9446 H   0  0  0  0  0  0  0  0  0  0  0  0
   -4.9264   16.7273   -2.4271 H   0  0  0  0  0  0  0  0  0  0  0  0
   -0.6924   14.4585   -1.9637 H   0  0  0  0  0  0  0  0  0  0  0  0
   -4.3942   14.7911    0.1870 H   0  0  0  0  0  0  0  0  0  0  0  0
   -3.0552   13.5593   -2.8176 H   0  0  0  0  0  0  0  0  0  0  0  0
   -3.1870   14.9284    2.1623 H   0  0  0  0  0  0  0  0  0  0  0  0
    1.3913   14.5057   -0.6145 H   0  0  0  0  0  0  0  0  0  0  0  0
    1.2778   14.6692    1.1236 H   0  0  0  0  0  0  0  0  0  0  0  0
  1  2  1  0  0  0  0
  1  3  2  0  0  0  0
  2  4  2  0  0  0  0
  3  5  1  0  0  0  0
  4  6  1  0  0  0  0
  5  6  2  0  0  0  0
  6 12  1  0  0  0  0
  7  9  1  0  0  0  0
  7 10  2  0  0  0  0
  8  9  2  0  0  0  0
  8 13  1  0  0  0  0
  9 12  1  0  0  0  0
 10 11  1  0  0  0  0
 10 14  1  0  0  0  0
 11 13  1  0  0  0  0
 11 15  2  0  0  0  0
 12 16  1  0  0  0  0
  1 17  1  0  0  0  0
  2 18  1  0  0  0  0
  3 19  1  0  0  0  0
  4 20  1  0  0  0  0
  5 21  1  0  0  0  0
  7 22  1  0  0  0  0
  8 23  1  0  0  0  0
 12 24  1  0  0  0  0
 13 25  1  0  0  0  0
 14 26  1  0  0  0  0
 14 27  1  0  0  0  0
M  END
> <HYBRID receptor title>
5S18(A) > WOY(A-201)

> <HYBRID receptor filename>
experiments/data/docking/5s18.oedu

> <HYBRID Chemgauss4 score>
-5.853284

> <HYBRID receptor title>
5S18(A) > WOY(A-201)

> <HYBRID receptor filename>
experiments/data/docking/5s18.oedu

> <Dock Type>
Hybrid

$$$$
MOL0334
  -OEChem-07032415493D

 21 21  0     0  0  0  0  0  0999 V2000
   -1.5155   14.8163   -1.0402 C   0  0  0  0  0  0  0  0  0  0  0  0
   -3.3703   15.3747    0.3863 C   0  0  0  0  0  0  0  0  0  0  0  0
   -2.8715   15.2678   -0.8494 C   0  0  0  0  0  0  0  0  0  0  0  0
   -0.7209   14.4939   -0.0042 C   0  0  0  0  0  0  0  0  0  0  0  0
   -1.2869   14.6164    1.3883 C   0  0  0  0  0  0  0  0  0  0  0  0
   -3.7257   15.6148   -1.9674 C   0  0  0  0  0  0  0  0  0  0  0  0
   -4.8734   14.9409   -2.1504 C   0  0  0  0  0  0  0  0  0  0  0  0
   -5.3492   13.8369   -1.2722 C   0  0  0  0  0  0  0  0  0  0  0  0
   -2.5985   15.0577    1.4749 N   0  0  0  0  0  0  0  0  0  0  0  0
    0.5678   14.0610   -0.1030 N   0  0  0  0  0  0  0  0  0  0  0  0
   -0.6079   14.3362    2.3748 O   0  0  0  0  0  0  0  0  0  0  0  0
   -6.5387   13.3138   -1.6624 F   0  0  0  0  0  0  0  0  0  0  0  0
   -4.4606   12.8112   -1.2422 F   0  0  0  0  0  0  0  0  0  0  0  0
   -5.5071   14.2568    0.0084 F   0  0  0  0  0  0  0  0  0  0  0  0
   -1.1410   14.7406   -2.0574 H   0  0  0  0  0  0  0  0  0  0  0  0
   -4.3771   15.7054    0.6132 H   0  0  0  0  0  0  0  0  0  0  0  0
   -3.4147   16.4168   -2.6346 H   0  0  0  0  0  0  0  0  0  0  0  0
   -5.5206   15.1954   -2.9859 H   0  0  0  0  0  0  0  0  0  0  0  0
   -3.0215   15.1553    2.3933 H   0  0  0  0  0  0  0  0  0  0  0  0
    0.9736   13.9691   -1.0093 H   0  0  0  0  0  0  0  0  0  0  0  0
    1.0670   13.8492    0.7335 H   0  0  0  0  0  0  0  0  0  0  0  0
  1  3  1  0  0  0  0
  1  4  2  0  0  0  0
  2  3  2  0  0  0  0
  2  9  1  0  0  0  0
  3  6  1  0  0  0  0
  4  5  1  0  0  0  0
  4 10  1  0  0  0  0
  5  9  1  0  0  0  0
  5 11  2  0  0  0  0
  6  7  2  0  0  0  0
  7  8  1  0  0  0  0
  8 12  1  0  0  0  0
  8 13  1  0  0  0  0
  8 14  1  0  0  0  0
  1 15  1  0  0  0  0
  2 16  1  0  0  0  0
  6 17  1  0  0  0  0
  7 18  1  0  0  0  0
  9 19  1  0  0  0  0
 10 20  1  0  0  0  0
 10 21  1  0  0  0  0
M  END
> <HYBRID receptor title>
5S18(A) > WOY(A-201)

> <HYBRID receptor filename>
experiments/data/docking/5s18.oedu

> <HYBRID Chemgauss4 score>
-5.844342

> <HYBRID receptor title>
5S18(A) > WOY(A-201)

> <HYBRID receptor filename>
experiments/data/docking/5s18.oedu

> <Dock Type>
Hybrid

$$$$
MOL0220
  -OEChem-07032415493D

 21 22  0     0  0  0  0  0  0999 V2000
    0.8496   14.7605   -0.6872 C   0  0  0  0  0  0  0  0  0  0  0  0
    0.2727   14.3985   -1.9193 C   0  0  0  0  0  0  0  0  0  0  0  0
   -0.2144   14.8448    0.1776 C   0  0  0  0  0  0  0  0  0  0  0  0
   -3.7313   14.1942   -0.8383 C   0  0  0  0  0  0  0  0  0  0  0  0
   -2.7950   14.8088    1.2814 C   0  0  0  0  0  0  0  0  0  0  0  0
   -2.5801   14.5251   -0.0141 C   0  0  0  0  0  0  0  0  0  0  0  0
   -4.9875   14.1646   -0.3612 C   0  0  0  0  0  0  0  0  0  0  0  0
   -5.1991   14.4887    1.0922 C   0  0  0  0  0  0  0  0  0  0  0  0
   -1.0540   14.2620   -1.8475 N   0  0  0  0  0  0  0  0  0  0  0  0
   -1.3203   14.5399   -0.5600 N   0  0  0  0  0  0  0  0  0  0  0  0
   -4.0582   14.7920    1.8146 N   0  0  0  0  0  0  0  0  0  0  0  0
   -6.1006   13.8624   -1.0879 N   0  0  0  0  0  0  0  0  0  0  0  0
   -6.3246   14.4787    1.5877 O   0  0  0  0  0  0  0  0  0  0  0  0
    1.8901   14.9363   -0.4582 H   0  0  0  0  0  0  0  0  0  0  0  0
    0.7641   14.2289   -2.8666 H   0  0  0  0  0  0  0  0  0  0  0  0
   -0.2646   15.0913    1.2303 H   0  0  0  0  0  0  0  0  0  0  0  0
   -3.5433   13.9647   -1.8844 H   0  0  0  0  0  0  0  0  0  0  0  0
   -2.0010   15.0653    1.9731 H   0  0  0  0  0  0  0  0  0  0  0  0
   -4.1520   15.0172    2.8007 H   0  0  0  0  0  0  0  0  0  0  0  0
   -5.9956   13.6422   -2.0548 H   0  0  0  0  0  0  0  0  0  0  0  0
   -6.9868   13.8703   -0.6314 H   0  0  0  0  0  0  0  0  0  0  0  0
  1  2  1  0  0  0  0
  1  3  2  0  0  0  0
  2  9  2  0  0  0  0
  3 10  1  0  0  0  0
  4  6  1  0  0  0  0
  4  7  2  0  0  0  0
  5  6  2  0  0  0  0
  5 11  1  0  0  0  0
  6 10  1  0  0  0  0
  7  8  1  0  0  0  0
  7 12  1  0  0  0  0
  8 11  1  0  0  0  0
  8 13  2  0  0  0  0
  9 10  1  0  0  0  0
  1 14  1  0  0  0  0
  2 15  1  0  0  0  0
  3 16  1  0  0  0  0
  4 17  1  0  0  0  0
  5 18  1  0  0  0  0
 11 19  1  0  0  0  0
 12 20  1  0  0  0  0
 12 21  1  0  0  0  0
M  END
> <HYBRID receptor title>
5S18(A) > WOY(A-201)

> <HYBRID receptor filename>
experiments/data/docking/5s18.oedu

> <HYBRID Chemgauss4 score>
-5.842260

> <HYBRID receptor title>
5S18(A) > WOY(A-201)

> <HYBRID receptor filename>
experiments/data/docking/5s18.oedu

> <Dock Type>
Hybrid

$$$$
MOL0248
  -OEChem-07032415493D

 31 32  0     0  0  0  0  0  0999 V2000
   -5.0133   14.2202   -1.1009 C   0  0  0  0  0  0  0  0  0  0  0  0
   -3.5618   14.4397    0.7969 C   0  0  0  0  0  0  0  0  0  0  0  0
   -3.6843   14.3203   -0.5322 C   0  0  0  0  0  0  0  0  0  0  0  0
   -6.1256   14.2432   -0.3465 C   0  0  0  0  0  0  0  0  0  0  0  0
   -5.9672   14.3779    1.1449 C   0  0  0  0  0  0  0  0  0  0  0  0
   -0.0006   13.0056   -2.3698 C   0  0  0  0  0  0  0  0  0  0  0  0
   -1.3014   12.8112   -3.1440 C   0  0  0  0  0  0  0  0  0  0  0  0
    0.0169   14.3368   -1.6234 C   0  0  0  0  0  0  0  0  0  0  0  0
   -2.5250   12.9599   -2.2389 C   0  0  0  0  0  0  0  0  0  0  0  0
   -1.1999   14.4850   -0.7103 C   0  0  0  0  0  0  0  0  0  0  0  0
   -2.5136   14.2839   -1.4714 C   0  0  0  0  0  0  0  0  0  0  0  0
   -4.6651   14.4677    1.6092 N   0  0  0  0  0  0  0  0  0  0  0  0
   -7.4011   14.1537   -0.8188 N   0  0  0  0  0  0  0  0  0  0  0  0
   -6.9472   14.4047    1.8871 O   0  0  0  0  0  0  0  0  0  0  0  0
   -2.7189   15.3515   -2.3898 O   0  0  0  0  0  0  0  0  0  0  0  0
   -5.0892   14.1237   -2.1807 H   0  0  0  0  0  0  0  0  0  0  0  0
   -2.6064   14.5197    1.3005 H   0  0  0  0  0  0  0  0  0  0  0  0
    0.1320   12.1828   -1.6585 H   0  0  0  0  0  0  0  0  0  0  0  0
    0.8467   12.9660   -3.0651 H   0  0  0  0  0  0  0  0  0  0  0  0
   -1.3581   13.5491   -3.9522 H   0  0  0  0  0  0  0  0  0  0  0  0
   -1.3019   11.8254   -3.6227 H   0  0  0  0  0  0  0  0  0  0  0  0
    0.9382   14.4155   -1.0349 H   0  0  0  0  0  0  0  0  0  0  0  0
    0.0334   15.1605   -2.3453 H   0  0  0  0  0  0  0  0  0  0  0  0
   -3.4300   12.9007   -2.8547 H   0  0  0  0  0  0  0  0  0  0  0  0
   -2.5830   12.1109   -1.5497 H   0  0  0  0  0  0  0  0  0  0  0  0
   -1.1244   13.7861    0.1286 H   0  0  0  0  0  0  0  0  0  0  0  0
   -1.1868   15.4848   -0.2627 H   0  0  0  0  0  0  0  0  0  0  0  0
   -4.5196   14.5597    2.6103 H   0  0  0  0  0  0  0  0  0  0  0  0
   -7.5422   14.0631   -1.8019 H   0  0  0  0  0  0  0  0  0  0  0  0
   -8.1556   14.1812   -0.1677 H   0  0  0  0  0  0  0  0  0  0  0  0
   -1.9661   15.3314   -2.9971 H   0  0  0  0  0  0  0  0  0  0  0  0
  1  3  1  0  0  0  0
  1  4  2  0  0  0  0
  2  3  2  0  0  0  0
  2 12  1  0  0  0  0
  3 11  1  0  0  0  0
  4  5  1  0  0  0  0
  4 13  1  0  0  0  0
  5 12  1  0  0  0  0
  5 14  2  0  0  0  0
  6  7  1  0  0  0  0
  6  8  1  0  0  0  0
  7  9  1  0  0  0  0
  8 10  1  0  0  0  0
  9 11  1  0  0  0  0
 10 11  1  0  0  0  0
 11 15  1  0  0  0  0
  1 16  1  0  0  0  0
  2 17  1  0  0  0  0
  6 18  1  0  0  0  0
  6 19  1  0  0  0  0
  7 20  1  0  0  0  0
  7 21  1  0  0  0  0
  8 22  1  0  0  0  0
  8 23  1  0  0  0  0
  9 24  1  0  0  0  0
  9 25  1  0  0  0  0
 10 26  1  0  0  0  0
 10 27  1  0  0  0  0
 12 28  1  0  0  0  0
 13 29  1  0  0  0  0
 13 30  1  0  0  0  0
 15 31  1  0  0  0  0
M  END
> <HYBRID receptor title>
5S18(A) > WOY(A-201)

> <HYBRID receptor filename>
experiments/data/docking/5s18.oedu

> <HYBRID Chemgauss4 score>
-5.841379

> <HYBRID receptor title>
5S18(A) > WOY(A-201)

> <HYBRID receptor filename>
experiments/data/docking/5s18.oedu

> <Dock Type>
Hybrid

$$$$
MOL0413
  -OEChem-07032415493D

 22 23  0     0  0  0  0  0  0999 V2000
   -2.6103   14.7203   -1.1777 C   0  0  0  0  0  0  0  0  0  0  0  0
   -4.4821   14.5611    0.3249 C   0  0  0  0  0  0  0  0  0  0  0  0
   -4.0188   14.5384   -0.9289 C   0  0  0  0  0  0  0  0  0  0  0  0
   -1.7311   14.9156   -0.1789 C   0  0  0  0  0  0  0  0  0  0  0  0
   -4.9636   14.3275   -2.0161 C   0  0  0  0  0  0  0  0  0  0  0  0
   -2.2576   14.9411    1.2341 C   0  0  0  0  0  0  0  0  0  0  0  0
   -6.6214   14.2666   -3.4092 C   0  0  0  0  0  0  0  0  0  0  0  0
   -5.4982   13.3959   -3.9242 C   0  0  0  0  0  0  0  0  0  0  0  0
   -6.2083   14.6644   -2.0581 N   0  0  0  0  0  0  0  0  0  0  0  0
   -3.6245   14.7573    1.3770 N   0  0  0  0  0  0  0  0  0  0  0  0
   -0.3887   15.0949   -0.3330 N   0  0  0  0  0  0  0  0  0  0  0  0
   -1.5019   15.1161    2.1884 O   0  0  0  0  0  0  0  0  0  0  0  0
   -4.4026   13.6921   -3.0724 O   0  0  0  0  0  0  0  0  0  0  0  0
   -2.2708   14.6956   -2.2092 H   0  0  0  0  0  0  0  0  0  0  0  0
   -5.5246   14.4319    0.5893 H   0  0  0  0  0  0  0  0  0  0  0  0
   -6.7447   15.1612   -4.0295 H   0  0  0  0  0  0  0  0  0  0  0  0
   -7.5739   13.7280   -3.3950 H   0  0  0  0  0  0  0  0  0  0  0  0
   -5.7331   12.3297   -3.8403 H   0  0  0  0  0  0  0  0  0  0  0  0
   -5.2440   13.6222   -4.9639 H   0  0  0  0  0  0  0  0  0  0  0  0
   -4.0233   14.7669    2.3113 H   0  0  0  0  0  0  0  0  0  0  0  0
   -0.0070   15.0838   -1.2543 H   0  0  0  0  0  0  0  0  0  0  0  0
    0.1723   15.2319    0.4796 H   0  0  0  0  0  0  0  0  0  0  0  0
  1  3  1  0  0  0  0
  1  4  2  0  0  0  0
  2  3  2  0  0  0  0
  2 10  1  0  0  0  0
  3  5  1  0  0  0  0
  4  6  1  0  0  0  0
  4 11  1  0  0  0  0
  5  9  2  0  0  0  0
  5 13  1  0  0  0  0
  6 10  1  0  0  0  0
  6 12  2  0  0  0  0
  7  8  1  0  0  0  0
  7  9  1  0  0  0  0
  8 13  1  0  0  0  0
  1 14  1  0  0  0  0
  2 15  1  0  0  0  0
  7 16  1  0  0  0  0
  7 17  1  0  0  0  0
  8 18  1  0  0  0  0
  8 19  1  0  0  0  0
 10 20  1  0  0  0  0
 11 21  1  0  0  0  0
 11 22  1  0  0  0  0
M  END
> <HYBRID receptor title>
5S18(A) > WOY(A-201)

> <HYBRID receptor filename>
experiments/data/docking/5s18.oedu

> <HYBRID Chemgauss4 score>
-5.833436

> <HYBRID receptor title>
5S18(A) > WOY(A-201)

> <HYBRID receptor filename>
experiments/data/docking/5s18.oedu

> <Dock Type>
Hybrid

$$$$
MOL0355
  -OEChem-07032415493D

 23 24  0     0  0  0  0  0  0999 V2000
   -1.3598   14.7982   -0.4742 C   0  0  0  0  0  0  0  0  0  0  0  0
   -2.7368   14.7292   -0.6539 C   0  0  0  0  0  0  0  0  0  0  0  0
   -0.8816   14.9581    0.8169 C   0  0  0  0  0  0  0  0  0  0  0  0
   -3.0046   14.9795    1.6960 C   0  0  0  0  0  0  0  0  0  0  0  0
   -3.5817   14.8207    0.4464 C   0  0  0  0  0  0  0  0  0  0  0  0
   -5.7331   15.2037   -0.8974 C   0  0  0  0  0  0  0  0  0  0  0  0
   -5.7532   14.2401    1.2981 C   0  0  0  0  0  0  0  0  0  0  0  0
   -5.0265   14.7517    0.2907 C   0  0  0  0  0  0  0  0  0  0  0  0
   -7.0698   15.1321   -1.0237 C   0  0  0  0  0  0  0  0  0  0  0  0
   -7.8584   14.5563    0.1204 C   0  0  0  0  0  0  0  0  0  0  0  0
   -1.6717   15.0508    1.9100 N   0  0  0  0  0  0  0  0  0  0  0  0
   -7.1184   14.1470    1.2161 N   0  0  0  0  0  0  0  0  0  0  0  0
   -7.7826   15.5387   -2.1123 N   0  0  0  0  0  0  0  0  0  0  0  0
   -9.0835   14.4650    0.0657 O   0  0  0  0  0  0  0  0  0  0  0  0
   -0.6825   14.7271   -1.3175 H   0  0  0  0  0  0  0  0  0  0  0  0
   -3.1369   14.6029   -1.6570 H   0  0  0  0  0  0  0  0  0  0  0  0
    0.1843   15.0161    1.0111 H   0  0  0  0  0  0  0  0  0  0  0  0
   -3.6090   15.0581    2.5951 H   0  0  0  0  0  0  0  0  0  0  0  0
   -5.1302   15.6126   -1.7043 H   0  0  0  0  0  0  0  0  0  0  0  0
   -5.3207   13.8751    2.2228 H   0  0  0  0  0  0  0  0  0  0  0  0
   -7.6081   13.7510    2.0132 H   0  0  0  0  0  0  0  0  0  0  0  0
   -7.2908   15.9239   -2.8897 H   0  0  0  0  0  0  0  0  0  0  0  0
   -8.7743   15.4390   -2.0993 H   0  0  0  0  0  0  0  0  0  0  0  0
  1  2  2  0  0  0  0
  1  3  1  0  0  0  0
  2  5  1  0  0  0  0
  3 11  2  0  0  0  0
  4  5  2  0  0  0  0
  4 11  1  0  0  0  0
  5  8  1  0  0  0  0
  6  8  1  0  0  0  0
  6  9  2  0  0  0  0
  7  8  2  0  0  0  0
  7 12  1  0  0  0  0
  9 10  1  0  0  0  0
  9 13  1  0  0  0  0
 10 12  1  0  0  0  0
 10 14  2  0  0  0  0
  1 15  1  0  0  0  0
  2 16  1  0  0  0  0
  3 17  1  0  0  0  0
  4 18  1  0  0  0  0
  6 19  1  0  0  0  0
  7 20  1  0  0  0  0
 12 21  1  0  0  0  0
 13 22  1  0  0  0  0
 13 23  1  0  0  0  0
M  END
> <HYBRID receptor title>
5S18(A) > WOY(A-201)

> <HYBRID receptor filename>
experiments/data/docking/5s18.oedu

> <HYBRID Chemgauss4 score>
-5.829483

> <HYBRID receptor title>
5S18(A) > WOY(A-201)

> <HYBRID receptor filename>
experiments/data/docking/5s18.oedu

> <Dock Type>
Hybrid

$$$$
MOL0368
  -OEChem-07032415493D

 32 32  0     1  0  0  0  0  0999 V2000
   -2.8349   15.2135   -1.0630 C   0  0  0  0  0  0  0  0  0  0  0  0
   -4.2507   15.1956    0.8740 C   0  0  0  0  0  0  0  0  0  0  0  0
   -4.1457   15.3258   -0.4556 C   0  0  0  0  0  0  0  0  0  0  0  0
   -1.7227   14.9835   -0.3439 C   0  0  0  0  0  0  0  0  0  0  0  0
   -1.8614   14.8402    1.1487 C   0  0  0  0  0  0  0  0  0  0  0  0
   -4.8425   16.4951   -2.4906 C   0  0  0  0  0  0  0  0  0  0  0  0
   -7.2536   14.5718   -2.6600 C   0  0  0  0  0  0  0  0  0  0  0  0
   -5.0341   13.4443   -2.7035 C   0  0  0  0  0  0  0  0  0  0  0  0
   -6.4238   13.3693   -0.6278 C   0  0  0  0  0  0  0  0  0  0  0  0
   -5.3199   15.5839   -1.3587 C   0  0  1  0  0  0  0  0  0  0  0  0
   -6.0002   14.2553   -1.8151 C   0  0  0  0  0  0  0  0  0  0  0  0
   -3.1468   14.9607    1.6511 N   0  0  0  0  0  0  0  0  0  0  0  0
   -0.4638   14.8674   -0.8534 N   0  0  0  0  0  0  0  0  0  0  0  0
   -0.8806   14.6291    1.8596 O   0  0  0  0  0  0  0  0  0  0  0  0
   -2.7729   15.3228   -2.1424 H   0  0  0  0  0  0  0  0  0  0  0  0
   -5.1919   15.2660    1.4051 H   0  0  0  0  0  0  0  0  0  0  0  0
   -4.1165   15.9907   -3.1348 H   0  0  0  0  0  0  0  0  0  0  0  0
   -5.6870   16.7916   -3.1240 H   0  0  0  0  0  0  0  0  0  0  0  0
   -4.3910   17.4167   -2.1121 H   0  0  0  0  0  0  0  0  0  0  0  0
   -7.9831   15.1501   -2.0821 H   0  0  0  0  0  0  0  0  0  0  0  0
   -6.9944   15.1601   -3.5484 H   0  0  0  0  0  0  0  0  0  0  0  0
   -7.7477   13.6596   -3.0109 H   0  0  0  0  0  0  0  0  0  0  0  0
   -4.1195   13.1863   -2.1601 H   0  0  0  0  0  0  0  0  0  0  0  0
   -5.4911   12.5139   -3.0584 H   0  0  0  0  0  0  0  0  0  0  0  0
   -4.7413   14.0146   -3.5930 H   0  0  0  0  0  0  0  0  0  0  0  0
   -5.5719   13.1118    0.0093 H   0  0  0  0  0  0  0  0  0  0  0  0
   -7.1567   13.8861    0.0029 H   0  0  0  0  0  0  0  0  0  0  0  0
   -6.8902   12.4370   -0.9639 H   0  0  0  0  0  0  0  0  0  0  0  0
   -6.0417   16.1532   -0.7567 H   0  0  0  0  0  0  0  0  0  0  0  0
   -3.2787   14.8696    2.6542 H   0  0  0  0  0  0  0  0  0  0  0  0
   -0.3360   14.9574   -1.8384 H   0  0  0  0  0  0  0  0  0  0  0  0
    0.2923   14.6961   -0.2267 H   0  0  0  0  0  0  0  0  0  0  0  0
  1  3  1  0  0  0  0
  1  4  2  0  0  0  0
  2  3  2  0  0  0  0
  2 12  1  0  0  0  0
  3 10  1  0  0  0  0
  4  5  1  0  0  0  0
  4 13  1  0  0  0  0
  5 12  1  0  0  0  0
  5 14  2  0  0  0  0
  6 10  1  0  0  0  0
  7 11  1  0  0  0  0
  8 11  1  0  0  0  0
  9 11  1  0  0  0  0
 10 11  1  0  0  0  0
  1 15  1  0  0  0  0
  2 16  1  0  0  0  0
  6 17  1  0  0  0  0
  6 18  1  0  0  0  0
  6 19  1  0  0  0  0
  7 20  1  0  0  0  0
  7 21  1  0  0  0  0
  7 22  1  0  0  0  0
  8 23  1  0  0  0  0
  8 24  1  0  0  0  0
  8 25  1  0  0  0  0
  9 26  1  0  0  0  0
  9 27  1  0  0  0  0
  9 28  1  0  0  0  0
 10 29  1  0  0  0  0
 12 30  1  0  0  0  0
 13 31  1  0  0  0  0
 13 32  1  0  0  0  0
M  END
> <HYBRID receptor title>
5S18(A) > WOY(A-201)

> <HYBRID receptor filename>
experiments/data/docking/5s18.oedu

> <HYBRID Chemgauss4 score>
-5.821641

> <HYBRID receptor title>
5S18(A) > WOY(A-201)

> <HYBRID receptor filename>
experiments/data/docking/5s18.oedu

> <Dock Type>
Hybrid

$$$$
MOL0088
  -OEChem-07032415493D

 25 26  0     0  0  0  0  0  0999 V2000
   -1.4329   14.6944   -1.5902 C   0  0  0  0  0  0  0  0  0  0  0  0
   -0.3384   14.8091    0.5419 C   0  0  0  0  0  0  0  0  0  0  0  0
   -1.4864   14.8345   -0.1489 C   0  0  0  0  0  0  0  0  0  0  0  0
   -0.2769   14.5398   -2.2585 C   0  0  0  0  0  0  0  0  0  0  0  0
    1.0023   14.5139   -1.4646 C   0  0  0  0  0  0  0  0  0  0  0  0
   -4.8902   15.5931    0.1280 C   0  0  0  0  0  0  0  0  0  0  0  0
   -4.0638   14.3268   -0.1458 C   0  0  0  0  0  0  0  0  0  0  0  0
   -3.5717   16.3672    0.2862 C   0  0  0  0  0  0  0  0  0  0  0  0
   -2.8533   15.0097    0.5640 C   0  0  0  0  0  0  0  0  0  0  0  0
    0.8659   14.6541   -0.0931 N   0  0  0  0  0  0  0  0  0  0  0  0
   -0.1592   14.4029   -3.6096 N   0  0  0  0  0  0  0  0  0  0  0  0
    2.0908   14.3756   -2.0198 O   0  0  0  0  0  0  0  0  0  0  0  0
   -2.7168   14.6787    1.9684 O   0  0  0  0  0  0  0  0  0  0  0  0
   -2.3767   14.7181   -2.1278 H   0  0  0  0  0  0  0  0  0  0  0  0
   -0.2882   14.9070    1.6195 H   0  0  0  0  0  0  0  0  0  0  0  0
   -5.4962   15.9203   -0.7264 H   0  0  0  0  0  0  0  0  0  0  0  0
   -5.5289   15.5593    1.0160 H   0  0  0  0  0  0  0  0  0  0  0  0
   -4.4448   13.4333    0.3668 H   0  0  0  0  0  0  0  0  0  0  0  0
   -3.9366   14.0789   -1.2056 H   0  0  0  0  0  0  0  0  0  0  0  0
   -3.2516   16.9201   -0.6039 H   0  0  0  0  0  0  0  0  0  0  0  0
   -3.5695   17.0632    1.1355 H   0  0  0  0  0  0  0  0  0  0  0  0
    1.7079   14.6413    0.4750 H   0  0  0  0  0  0  0  0  0  0  0  0
   -0.9868   14.4160   -4.1659 H   0  0  0  0  0  0  0  0  0  0  0  0
    0.7507   14.2939   -4.0022 H   0  0  0  0  0  0  0  0  0  0  0  0
   -2.4260   13.7610    1.9830 H   0  0  0  0  0  0  0  0  0  0  0  0
  1  3  1  0  0  0  0
  1  4  2  0  0  0  0
  2  3  2  0  0  0  0
  2 10  1  0  0  0  0
  3  9  1  0  0  0  0
  4  5  1  0  0  0  0
  4 11  1  0  0  0  0
  5 10  1  0  0  0  0
  5 12  2  0  0  0  0
  6  7  1  0  0  0  0
  6  8  1  0  0  0  0
  7  9  1  0  0  0  0
  8  9  1  0  0  0  0
  9 13  1  0  0  0  0
  1 14  1  0  0  0  0
  2 15  1  0  0  0  0
  6 16  1  0  0  0  0
  6 17  1  0  0  0  0
  7 18  1  0  0  0  0
  7 19  1  0  0  0  0
  8 20  1  0  0  0  0
  8 21  1  0  0  0  0
 10 22  1  0  0  0  0
 11 23  1  0  0  0  0
 11 24  1  0  0  0  0
 13 25  1  0  0  0  0
M  END
> <HYBRID receptor title>
5S18(A) > WOY(A-201)

> <HYBRID receptor filename>
experiments/data/docking/5s18.oedu

> <HYBRID Chemgauss4 score>
-5.818415

> <HYBRID receptor title>
5S18(A) > WOY(A-201)

> <HYBRID receptor filename>
experiments/data/docking/5s18.oedu

> <Dock Type>
Hybrid

$$$$
MOL0132
  -OEChem-07032415493D

 17 17  0     0  0  0  0  0  0999 V2000
   -4.1817   14.6293   -0.5673 C   0  0  0  0  0  0  0  0  0  0  0  0
   -4.4268   14.7314    0.7416 C   0  0  0  0  0  0  0  0  0  0  0  0
   -1.7856   14.6177   -0.1982 C   0  0  0  0  0  0  0  0  0  0  0  0
   -2.8170   14.5690   -1.0744 C   0  0  0  0  0  0  0  0  0  0  0  0
   -2.0680   14.7347    1.2823 C   0  0  0  0  0  0  0  0  0  0  0  0
   -0.3277   14.5633   -0.5599 C   0  0  0  0  0  0  0  0  0  0  0  0
   -3.4013   14.7830    1.6426 N   0  0  0  0  0  0  0  0  0  0  0  0
   -2.6908   14.4646   -2.4342 N   0  0  0  0  0  0  0  0  0  0  0  0
   -1.1526   14.7824    2.1020 O   0  0  0  0  0  0  0  0  0  0  0  0
   -0.1703   14.4578   -1.8936 F   0  0  0  0  0  0  0  0  0  0  0  0
    0.3121   15.6755   -0.1504 F   0  0  0  0  0  0  0  0  0  0  0  0
    0.2685   13.5020    0.0170 F   0  0  0  0  0  0  0  0  0  0  0  0
   -5.0079   14.5897   -1.2703 H   0  0  0  0  0  0  0  0  0  0  0  0
   -5.4280   14.7782    1.1504 H   0  0  0  0  0  0  0  0  0  0  0  0
   -3.6410   14.8612    2.6265 H   0  0  0  0  0  0  0  0  0  0  0  0
   -3.5184   14.4367   -2.9843 H   0  0  0  0  0  0  0  0  0  0  0  0
   -1.7766   14.4207   -2.8214 H   0  0  0  0  0  0  0  0  0  0  0  0
  1  2  2  0  0  0  0
  1  4  1  0  0  0  0
  2  7  1  0  0  0  0
  3  4  2  0  0  0  0
  3  5  1  0  0  0  0
  3  6  1  0  0  0  0
  4  8  1  0  0  0  0
  5  7  1  0  0  0  0
  5  9  2  0  0  0  0
  6 10  1  0  0  0  0
  6 11  1  0  0  0  0
  6 12  1  0  0  0  0
  1 13  1  0  0  0  0
  2 14  1  0  0  0  0
  7 15  1  0  0  0  0
  8 16  1  0  0  0  0
  8 17  1  0  0  0  0
M  END
> <HYBRID receptor title>
5S18(A) > WOY(A-201)

> <HYBRID receptor filename>
experiments/data/docking/5s18.oedu

> <HYBRID Chemgauss4 score>
-5.812724

> <HYBRID receptor title>
5S18(A) > WOY(A-201)

> <HYBRID receptor filename>
experiments/data/docking/5s18.oedu

> <Dock Type>
Hybrid

$$$$
MOL0078
  -OEChem-07032415493D

 14 14  0     0  0  0  0  0  0999 V2000
   -4.4060   14.6867   -0.5496 C   0  0  0  0  0  0  0  0  0  0  0  0
   -3.0881   14.4437   -1.0822 C   0  0  0  0  0  0  0  0  0  0  0  0
   -4.5550   14.9378    0.7553 C   0  0  0  0  0  0  0  0  0  0  0  0
   -2.0045   14.4642   -0.2917 C   0  0  0  0  0  0  0  0  0  0  0  0
   -2.1654   14.7458    1.1733 C   0  0  0  0  0  0  0  0  0  0  0  0
   -3.4691   14.9671    1.5941 N   0  0  0  0  0  0  0  0  0  0  0  0
   -0.7286   14.2435   -0.7232 N   0  0  0  0  0  0  0  0  0  0  0  0
   -1.1983   14.7741    1.9313 O   0  0  0  0  0  0  0  0  0  0  0  0
   -5.2550   14.6608   -1.2221 H   0  0  0  0  0  0  0  0  0  0  0  0
   -3.0089   14.2436   -2.1459 H   0  0  0  0  0  0  0  0  0  0  0  0
   -5.5179   15.1274    1.2119 H   0  0  0  0  0  0  0  0  0  0  0  0
   -3.6398   15.1628    2.5762 H   0  0  0  0  0  0  0  0  0  0  0  0
   -0.5783   14.0530   -1.6897 H   0  0  0  0  0  0  0  0  0  0  0  0
    0.0125   14.2798   -0.0587 H   0  0  0  0  0  0  0  0  0  0  0  0
  1  2  1  0  0  0  0
  1  3  2  0  0  0  0
  2  4  2  0  0  0  0
  3  6  1  0  0  0  0
  4  5  1  0  0  0  0
  4  7  1  0  0  0  0
  5  6  1  0  0  0  0
  5  8  2  0  0  0  0
  1  9  1  0  0  0  0
  2 10  1  0  0  0  0
  3 11  1  0  0  0  0
  6 12  1  0  0  0  0
  7 13  1  0  0  0  0
  7 14  1  0  0  0  0
M  END
> <HYBRID receptor title>
5S18(A) > WOY(A-201)

> <HYBRID receptor filename>
experiments/data/docking/5s18.oedu

> <HYBRID Chemgauss4 score>
-5.810669

> <HYBRID receptor title>
5S18(A) > WOY(A-201)

> <HYBRID receptor filename>
experiments/data/docking/5s18.oedu

> <Dock Type>
Hybrid

$$$$
MOL0188
  -OEChem-07032415493D

 32 32  0     0  0  0  0  0  0999 V2000
   -2.0385   14.4525   -1.0408 C   0  0  0  0  0  0  0  0  0  0  0  0
   -3.8352   14.8705    0.4934 C   0  0  0  0  0  0  0  0  0  0  0  0
   -3.4459   14.6696   -0.7730 C   0  0  0  0  0  0  0  0  0  0  0  0
   -1.1108   14.4447   -0.0680 C   0  0  0  0  0  0  0  0  0  0  0  0
   -1.5681   14.6724    1.3485 C   0  0  0  0  0  0  0  0  0  0  0  0
   -5.2706   13.0321   -3.7790 C   0  0  0  0  0  0  0  0  0  0  0  0
   -3.9731   17.1691   -2.4355 C   0  0  0  0  0  0  0  0  0  0  0  0
   -5.8125   14.9080   -1.3965 C   0  0  0  0  0  0  0  0  0  0  0  0
   -4.3631   13.2393   -2.5705 C   0  0  0  0  0  0  0  0  0  0  0  0
   -3.9809   15.7391   -2.9683 C   0  0  0  0  0  0  0  0  0  0  0  0
   -4.3978   14.6569   -1.9442 C   0  0  0  0  0  0  0  0  0  0  0  0
   -2.9281   14.8721    1.5204 N   0  0  0  0  0  0  0  0  0  0  0  0
    0.2250   14.2466   -0.2534 N   0  0  0  0  0  0  0  0  0  0  0  0
   -0.7665   14.6766    2.2810 O   0  0  0  0  0  0  0  0  0  0  0  0
   -1.7451   14.2921   -2.0748 H   0  0  0  0  0  0  0  0  0  0  0  0
   -4.8663   15.0401    0.7779 H   0  0  0  0  0  0  0  0  0  0  0  0
   -6.3072   13.2615   -3.5081 H   0  0  0  0  0  0  0  0  0  0  0  0
   -4.9956   13.6920   -4.6058 H   0  0  0  0  0  0  0  0  0  0  0  0
   -5.2412   11.9967   -4.1324 H   0  0  0  0  0  0  0  0  0  0  0  0
   -3.3153   17.2696   -1.5673 H   0  0  0  0  0  0  0  0  0  0  0  0
   -3.6532   17.8811   -3.2016 H   0  0  0  0  0  0  0  0  0  0  0  0
   -4.9814   17.4509   -2.1161 H   0  0  0  0  0  0  0  0  0  0  0  0
   -6.5533   14.9105   -2.2031 H   0  0  0  0  0  0  0  0  0  0  0  0
   -6.1041   14.1318   -0.6776 H   0  0  0  0  0  0  0  0  0  0  0  0
   -5.8796   15.8638   -0.8643 H   0  0  0  0  0  0  0  0  0  0  0  0
   -3.3357   13.0007   -2.8788 H   0  0  0  0  0  0  0  0  0  0  0  0
   -4.6375   12.4984   -1.8085 H   0  0  0  0  0  0  0  0  0  0  0  0
   -4.6547   15.7013   -3.8339 H   0  0  0  0  0  0  0  0  0  0  0  0
   -2.9725   15.5276   -3.3450 H   0  0  0  0  0  0  0  0  0  0  0  0
   -3.2731   15.0289    2.4629 H   0  0  0  0  0  0  0  0  0  0  0  0
    0.5621   14.0931   -1.1793 H   0  0  0  0  0  0  0  0  0  0  0  0
    0.8259   14.2611    0.5420 H   0  0  0  0  0  0  0  0  0  0  0  0
  1  3  1  0  0  0  0
  1  4  2  0  0  0  0
  2  3  2  0  0  0  0
  2 12  1  0  0  0  0
  3 11  1  0  0  0  0
  4  5  1  0  0  0  0
  4 13  1  0  0  0  0
  5 12  1  0  0  0  0
  5 14  2  0  0  0  0
  6  9  1  0  0  0  0
  7 10  1  0  0  0  0
  8 11  1  0  0  0  0
  9 11  1  0  0  0  0
 10 11  1  0  0  0  0
  1 15  1  0  0  0  0
  2 16  1  0  0  0  0
  6 17  1  0  0  0  0
  6 18  1  0  0  0  0
  6 19  1  0  0  0  0
  7 20  1  0  0  0  0
  7 21  1  0  0  0  0
  7 22  1  0  0  0  0
  8 23  1  0  0  0  0
  8 24  1  0  0  0  0
  8 25  1  0  0  0  0
  9 26  1  0  0  0  0
  9 27  1  0  0  0  0
 10 28  1  0  0  0  0
 10 29  1  0  0  0  0
 12 30  1  0  0  0  0
 13 31  1  0  0  0  0
 13 32  1  0  0  0  0
M  END
> <HYBRID receptor title>
5S18(A) > WOY(A-201)

> <HYBRID receptor filename>
experiments/data/docking/5s18.oedu

> <HYBRID Chemgauss4 score>
-5.794166

> <HYBRID receptor title>
5S18(A) > WOY(A-201)

> <HYBRID receptor filename>
experiments/data/docking/5s18.oedu

> <Dock Type>
Hybrid

$$$$
MOL0012
  -OEChem-07032415493D

 23 23  0     0  0  0  0  0  0999 V2000
    0.3599   14.6856   -1.1652 C   0  0  0  0  0  0  0  0  0  0  0  0
   -1.8211   14.4050   -2.1204 C   0  0  0  0  0  0  0  0  0  0  0  0
   -0.4999   14.5129   -2.3132 C   0  0  0  0  0  0  0  0  0  0  0  0
   -0.1180   14.7429    0.0884 C   0  0  0  0  0  0  0  0  0  0  0  0
   -1.6070   14.6220    0.2981 C   0  0  0  0  0  0  0  0  0  0  0  0
   -3.8314   14.3288   -0.7608 C   0  0  0  0  0  0  0  0  0  0  0  0
    0.1417   14.4643   -3.6641 C   0  0  0  0  0  0  0  0  0  0  0  0
   -4.3855   15.5605   -0.0963 C   0  0  0  0  0  0  0  0  0  0  0  0
   -2.3809   14.4548   -0.8575 N   0  0  0  0  0  0  0  0  0  0  0  0
    0.6432   14.9041    1.2089 N   0  0  0  0  0  0  0  0  0  0  0  0
   -2.0640   14.6734    1.4407 O   0  0  0  0  0  0  0  0  0  0  0  0
    1.4812   14.5973   -3.5692 F   0  0  0  0  0  0  0  0  0  0  0  0
   -0.1134   13.2935   -4.2843 F   0  0  0  0  0  0  0  0  0  0  0  0
   -0.3167   15.4577   -4.4543 F   0  0  0  0  0  0  0  0  0  0  0  0
   -5.7303   15.4993    0.0083 F   0  0  0  0  0  0  0  0  0  0  0  0
   -3.8753   15.7222    1.1433 F   0  0  0  0  0  0  0  0  0  0  0  0
   -4.0794   16.6650   -0.8130 F   0  0  0  0  0  0  0  0  0  0  0  0
    1.4281   14.7697   -1.3459 H   0  0  0  0  0  0  0  0  0  0  0  0
   -2.5107   14.2740   -2.9478 H   0  0  0  0  0  0  0  0  0  0  0  0
   -4.2385   14.2104   -1.7686 H   0  0  0  0  0  0  0  0  0  0  0  0
   -4.0650   13.4317   -0.1800 H   0  0  0  0  0  0  0  0  0  0  0  0
    1.6313   14.9874    1.1071 H   0  0  0  0  0  0  0  0  0  0  0  0
    0.1884   14.9338    2.0950 H   0  0  0  0  0  0  0  0  0  0  0  0
  1  3  1  0  0  0  0
  1  4  2  0  0  0  0
  2  3  2  0  0  0  0
  2  9  1  0  0  0  0
  3  7  1  0  0  0  0
  4  5  1  0  0  0  0
  4 10  1  0  0  0  0
  5  9  1  0  0  0  0
  5 11  2  0  0  0  0
  6  8  1  0  0  0  0
  6  9  1  0  0  0  0
  7 12  1  0  0  0  0
  7 13  1  0  0  0  0
  7 14  1  0  0  0  0
  8 15  1  0  0  0  0
  8 16  1  0  0  0  0
  8 17  1  0  0  0  0
  1 18  1  0  0  0  0
  2 19  1  0  0  0  0
  6 20  1  0  0  0  0
  6 21  1  0  0  0  0
 10 22  1  0  0  0  0
 10 23  1  0  0  0  0
M  END
> <HYBRID receptor title>
5S18(A) > WOY(A-201)

> <HYBRID receptor filename>
experiments/data/docking/5s18.oedu

> <HYBRID Chemgauss4 score>
-5.779408

> <HYBRID receptor title>
5S18(A) > WOY(A-201)

> <HYBRID receptor filename>
experiments/data/docking/5s18.oedu

> <Dock Type>
Hybrid

$$$$
MOL0009
  -OEChem-07032415493D

 17 17  0     0  0  0  0  0  0999 V2000
   -2.1824   14.7755   -0.7938 C   0  0  0  0  0  0  0  0  0  0  0  0
   -3.1417   15.2458    1.3313 C   0  0  0  0  0  0  0  0  0  0  0  0
   -3.3060   15.0853   -0.0355 C   0  0  0  0  0  0  0  0  0  0  0  0
   -0.9467   14.6376   -0.1716 C   0  0  0  0  0  0  0  0  0  0  0  0
   -0.8877   14.8180    1.2009 C   0  0  0  0  0  0  0  0  0  0  0  0
   -4.6420   15.2382   -0.6705 C   0  0  0  0  0  0  0  0  0  0  0  0
   -1.9572   15.1196    1.9708 N   0  0  0  0  0  0  0  0  0  0  0  0
    0.1976   14.3216   -0.9256 N   0  0  0  0  0  0  0  0  0  0  0  0
    0.3111   14.6905    1.8536 O   0  0  0  0  0  0  0  0  0  0  0  0
   -4.6369   15.0474   -2.0246 F   0  0  0  0  0  0  0  0  0  0  0  0
   -5.1783   16.4810   -0.4823 F   0  0  0  0  0  0  0  0  0  0  0  0
   -5.5789   14.3630   -0.1943 F   0  0  0  0  0  0  0  0  0  0  0  0
   -2.2724   14.6429   -1.8695 H   0  0  0  0  0  0  0  0  0  0  0  0
   -3.9819   15.4876    1.9750 H   0  0  0  0  0  0  0  0  0  0  0  0
    0.1056   14.1446   -1.9073 H   0  0  0  0  0  0  0  0  0  0  0  0
    1.0700   14.1736   -0.4561 H   0  0  0  0  0  0  0  0  0  0  0  0
    0.1612   14.8497    2.8002 H   0  0  0  0  0  0  0  0  0  0  0  0
  1  3  2  0  0  0  0
  1  4  1  0  0  0  0
  2  3  1  0  0  0  0
  2  7  2  0  0  0  0
  3  6  1  0  0  0  0
  4  5  2  0  0  0  0
  4  8  1  0  0  0  0
  5  7  1  0  0  0  0
  5  9  1  0  0  0  0
  6 10  1  0  0  0  0
  6 11  1  0  0  0  0
  6 12  1  0  0  0  0
  1 13  1  0  0  0  0
  2 14  1  0  0  0  0
  8 15  1  0  0  0  0
  8 16  1  0  0  0  0
  9 17  1  0  0  0  0
M  END
> <HYBRID receptor title>
5S18(A) > WOY(A-201)

> <HYBRID receptor filename>
experiments/data/docking/5s18.oedu

> <HYBRID Chemgauss4 score>
-5.761381

> <HYBRID receptor title>
5S18(A) > WOY(A-201)

> <HYBRID receptor filename>
experiments/data/docking/5s18.oedu

> <Dock Type>
Hybrid

$$$$
MOL0223
  -OEChem-07032415493D

 16 16  0     0  0  0  0  0  0999 V2000
   -0.3423   14.3563   -0.1895 C   0  0  0  0  0  0  0  0  0  0  0  0
   -2.6265   15.1090   -0.2152 C   0  0  0  0  0  0  0  0  0  0  0  0
   -0.3109   14.6700    1.1602 C   0  0  0  0  0  0  0  0  0  0  0  0
   -1.5260   14.5831   -0.8827 C   0  0  0  0  0  0  0  0  0  0  0  0
   -2.4933   15.3891    1.1352 C   0  0  0  0  0  0  0  0  0  0  0  0
   -1.6143   14.2632   -2.3361 C   0  0  0  0  0  0  0  0  0  0  0  0
   -1.3598   15.1823    1.8422 N   0  0  0  0  0  0  0  0  0  0  0  0
   -3.6236   15.9248    1.8013 N   0  0  0  0  0  0  0  0  0  0  0  0
   -0.4595   13.7539   -2.8587 F   0  0  0  0  0  0  0  0  0  0  0  0
   -1.9086   15.3571   -3.0980 F   0  0  0  0  0  0  0  0  0  0  0  0
   -2.5772   13.3406   -2.6333 F   0  0  0  0  0  0  0  0  0  0  0  0
    0.5336   13.9476   -0.6816 H   0  0  0  0  0  0  0  0  0  0  0  0
   -3.5586   15.2924   -0.7414 H   0  0  0  0  0  0  0  0  0  0  0  0
    0.5885   14.5125    1.7461 H   0  0  0  0  0  0  0  0  0  0  0  0
   -4.4424   16.1275    1.2709 H   0  0  0  0  0  0  0  0  0  0  0  0
   -3.5383   16.1844    2.7596 H   0  0  0  0  0  0  0  0  0  0  0  0
  1  3  2  0  0  0  0
  1  4  1  0  0  0  0
  2  4  2  0  0  0  0
  2  5  1  0  0  0  0
  3  7  1  0  0  0  0
  4  6  1  0  0  0  0
  5  7  2  0  0  0  0
  5  8  1  0  0  0  0
  6  9  1  0  0  0  0
  6 10  1  0  0  0  0
  6 11  1  0  0  0  0
  1 12  1  0  0  0  0
  2 13  1  0  0  0  0
  3 14  1  0  0  0  0
  8 15  1  0  0  0  0
  8 16  1  0  0  0  0
M  END
> <HYBRID receptor title>
5S18(A) > WOY(A-201)

> <HYBRID receptor filename>
experiments/data/docking/5s18.oedu

> <HYBRID Chemgauss4 score>
-5.748590

> <HYBRID receptor title>
5S18(A) > WOY(A-201)

> <HYBRID receptor filename>
experiments/data/docking/5s18.oedu

> <Dock Type>
Hybrid

$$$$
MOL0063
  -OEChem-07032415493D

 16 16  0     0  0  0  0  0  0999 V2000
   -1.3183   14.5934   -0.8728 C   0  0  0  0  0  0  0  0  0  0  0  0
   -0.1271   14.4430   -0.1717 C   0  0  0  0  0  0  0  0  0  0  0  0
   -2.4139   15.0478    1.1889 C   0  0  0  0  0  0  0  0  0  0  0  0
   -2.4881   14.9016   -0.1874 C   0  0  0  0  0  0  0  0  0  0  0  0
   -0.1582   14.6098    1.2034 C   0  0  0  0  0  0  0  0  0  0  0  0
   -3.7778   15.0708   -0.9085 C   0  0  0  0  0  0  0  0  0  0  0  0
   -1.2748   14.9093    1.9039 N   0  0  0  0  0  0  0  0  0  0  0  0
    1.0638   14.4530    1.9036 N   0  0  0  0  0  0  0  0  0  0  0  0
   -3.6831   14.8960   -2.2614 F   0  0  0  0  0  0  0  0  0  0  0  0
   -4.3182   16.3147   -0.7412 F   0  0  0  0  0  0  0  0  0  0  0  0
   -4.7495   14.1961   -0.5067 F   0  0  0  0  0  0  0  0  0  0  0  0
   -1.3257   14.4700   -1.9521 H   0  0  0  0  0  0  0  0  0  0  0  0
    0.7903   14.2024   -0.6990 H   0  0  0  0  0  0  0  0  0  0  0  0
   -3.2941   15.2888    1.7772 H   0  0  0  0  0  0  0  0  0  0  0  0
    1.8768   14.1801    1.3960 H   0  0  0  0  0  0  0  0  0  0  0  0
    1.0594   14.5153    2.8981 H   0  0  0  0  0  0  0  0  0  0  0  0
  1  2  2  0  0  0  0
  1  4  1  0  0  0  0
  2  5  1  0  0  0  0
  3  4  2  0  0  0  0
  3  7  1  0  0  0  0
  4  6  1  0  0  0  0
  5  7  2  0  0  0  0
  5  8  1  0  0  0  0
  6  9  1  0  0  0  0
  6 10  1  0  0  0  0
  6 11  1  0  0  0  0
  1 12  1  0  0  0  0
  2 13  1  0  0  0  0
  3 14  1  0  0  0  0
  8 15  1  0  0  0  0
  8 16  1  0  0  0  0
M  END
> <HYBRID receptor title>
5S18(A) > WOY(A-201)

> <HYBRID receptor filename>
experiments/data/docking/5s18.oedu

> <HYBRID Chemgauss4 score>
-5.747792

> <HYBRID receptor title>
5S18(A) > WOY(A-201)

> <HYBRID receptor filename>
experiments/data/docking/5s18.oedu

> <Dock Type>
Hybrid

$$$$
MOL0424
  -OEChem-07032415493D

 30 31  0     0  0  0  0  0  0999 V2000
   -0.4365   14.8971   -2.8863 C   0  0  0  0  0  0  0  0  0  0  0  0
   -1.0700   12.6309   -2.3381 C   0  0  0  0  0  0  0  0  0  0  0  0
    0.4372   14.4163   -3.8616 C   0  0  0  0  0  0  0  0  0  0  0  0
   -0.1964   12.1501   -3.3134 C   0  0  0  0  0  0  0  0  0  0  0  0
   -1.1902   14.0042   -2.1247 C   0  0  0  0  0  0  0  0  0  0  0  0
    0.5574   13.0430   -4.0751 C   0  0  0  0  0  0  0  0  0  0  0  0
   -4.2103   15.2985   -0.2637 C   0  0  0  0  0  0  0  0  0  0  0  0
   -2.1000   14.5049   -1.1074 C   0  0  0  0  0  0  0  0  0  0  0  0
   -3.3899   14.8057   -1.3579 C   0  0  0  0  0  0  0  0  0  0  0  0
   -3.7425   15.4710    0.9834 C   0  0  0  0  0  0  0  0  0  0  0  0
   -2.3036   15.1341    1.2464 C   0  0  0  0  0  0  0  0  0  0  0  0
    1.4918   12.5294   -5.1177 C   0  0  0  0  0  0  0  0  0  0  0  0
   -4.0845   14.6790   -2.6838 C   0  0  0  0  0  0  0  0  0  0  0  0
   -1.5830   14.6689    0.1609 N   0  0  0  0  0  0  0  0  0  0  0  0
   -4.4680   15.9297    2.0422 N   0  0  0  0  0  0  0  0  0  0  0  0
   -1.8146   15.2706    2.3666 O   0  0  0  0  0  0  0  0  0  0  0  0
    2.1642   13.5126   -5.7859 F   0  0  0  0  0  0  0  0  0  0  0  0
    0.8548   11.8023   -6.0814 F   0  0  0  0  0  0  0  0  0  0  0  0
    2.4631   11.7074   -4.6207 F   0  0  0  0  0  0  0  0  0  0  0  0
   -5.3729   15.0613   -2.5873 F   0  0  0  0  0  0  0  0  0  0  0  0
   -3.4898   15.4487   -3.6158 F   0  0  0  0  0  0  0  0  0  0  0  0
   -4.0588   13.4037   -3.1179 F   0  0  0  0  0  0  0  0  0  0  0  0
   -0.5194   15.9704   -2.7321 H   0  0  0  0  0  0  0  0  0  0  0  0
   -1.6513   11.9232   -1.7521 H   0  0  0  0  0  0  0  0  0  0  0  0
    1.0201   15.1195   -4.4505 H   0  0  0  0  0  0  0  0  0  0  0  0
   -0.1093   11.0786   -3.4730 H   0  0  0  0  0  0  0  0  0  0  0  0
   -5.2480   15.5336   -0.4880 H   0  0  0  0  0  0  0  0  0  0  0  0
   -0.6056   14.4317    0.3080 H   0  0  0  0  0  0  0  0  0  0  0  0
   -5.4274   16.1622    1.9003 H   0  0  0  0  0  0  0  0  0  0  0  0
   -4.0185   16.0193    2.9276 H   0  0  0  0  0  0  0  0  0  0  0  0
  1  3  2  0  0  0  0
  1  5  1  0  0  0  0
  2  4  1  0  0  0  0
  2  5  2  0  0  0  0
  3  6  1  0  0  0  0
  4  6  2  0  0  0  0
  5  8  1  0  0  0  0
  6 12  1  0  0  0  0
  7  9  1  0  0  0  0
  7 10  2  0  0  0  0
  8  9  2  0  0  0  0
  8 14  1  0  0  0  0
  9 13  1  0  0  0  0
 10 11  1  0  0  0  0
 10 15  1  0  0  0  0
 11 14  1  0  0  0  0
 11 16  2  0  0  0  0
 12 17  1  0  0  0  0
 12 18  1  0  0  0  0
 12 19  1  0  0  0  0
 13 20  1  0  0  0  0
 13 21  1  0  0  0  0
 13 22  1  0  0  0  0
  1 23  1  0  0  0  0
  2 24  1  0  0  0  0
  3 25  1  0  0  0  0
  4 26  1  0  0  0  0
  7 27  1  0  0  0  0
 14 28  1  0  0  0  0
 15 29  1  0  0  0  0
 15 30  1  0  0  0  0
M  END
> <HYBRID receptor title>
5S18(A) > WOY(A-201)

> <HYBRID receptor filename>
experiments/data/docking/5s18.oedu

> <HYBRID Chemgauss4 score>
-5.746493

> <HYBRID receptor title>
5S18(A) > WOY(A-201)

> <HYBRID receptor filename>
experiments/data/docking/5s18.oedu

> <Dock Type>
Hybrid

$$$$
MOL0365
  -OEChem-07032415493D

 24 24  0     1  0  0  0  0  0999 V2000
   -1.5351   14.5035   -0.9272 C   0  0  0  0  0  0  0  0  0  0  0  0
   -3.4768   14.9073    0.4343 C   0  0  0  0  0  0  0  0  0  0  0  0
   -2.9558   14.7006   -0.7794 C   0  0  0  0  0  0  0  0  0  0  0  0
   -0.7012   14.5206    0.1277 C   0  0  0  0  0  0  0  0  0  0  0  0
   -1.2926   14.7546    1.4952 C   0  0  0  0  0  0  0  0  0  0  0  0
   -3.8557   14.6804   -1.9324 C   0  0  0  0  0  0  0  0  0  0  0  0
   -4.3663   15.1125   -4.3448 C   0  0  0  0  0  0  0  0  0  0  0  0
   -3.2915   15.1394   -3.2722 C   0  0  1  0  0  0  0  0  0  0  0  0
   -2.6668   14.9336    1.5408 N   0  0  0  0  0  0  0  0  0  0  0  0
    0.6490   14.3429    0.0693 N   0  0  0  0  0  0  0  0  0  0  0  0
   -2.7606   16.4656   -3.0945 N   0  0  0  0  0  0  0  0  0  0  0  0
   -0.5800   14.7812    2.4971 O   0  0  0  0  0  0  0  0  0  0  0  0
   -5.0344   14.3340   -1.7958 O   0  0  0  0  0  0  0  0  0  0  0  0
   -1.1483   14.3383   -1.9287 H   0  0  0  0  0  0  0  0  0  0  0  0
   -4.5320   15.0626    0.6235 H   0  0  0  0  0  0  0  0  0  0  0  0
   -5.2167   15.7493   -4.0741 H   0  0  0  0  0  0  0  0  0  0  0  0
   -3.9743   15.4724   -5.3023 H   0  0  0  0  0  0  0  0  0  0  0  0
   -4.7464   14.0956   -4.4904 H   0  0  0  0  0  0  0  0  0  0  0  0
   -2.4479   14.5005   -3.5529 H   0  0  0  0  0  0  0  0  0  0  0  0
   -3.1085   15.0942    2.4413 H   0  0  0  0  0  0  0  0  0  0  0  0
    1.0730   14.1859   -0.8196 H   0  0  0  0  0  0  0  0  0  0  0  0
    1.1731   14.3751    0.9167 H   0  0  0  0  0  0  0  0  0  0  0  0
   -2.3051   16.7795   -3.9553 H   0  0  0  0  0  0  0  0  0  0  0  0
   -2.0252   16.4573   -2.3827 H   0  0  0  0  0  0  0  0  0  0  0  0
  1  3  1  0  0  0  0
  1  4  2  0  0  0  0
  2  3  2  0  0  0  0
  2  9  1  0  0  0  0
  3  6  1  0  0  0  0
  4  5  1  0  0  0  0
  4 10  1  0  0  0  0
  5  9  1  0  0  0  0
  5 12  2  0  0  0  0
  6  8  1  0  0  0  0
  6 13  2  0  0  0  0
  7  8  1  0  0  0  0
  8 11  1  0  0  0  0
  1 14  1  0  0  0  0
  2 15  1  0  0  0  0
  7 16  1  0  0  0  0
  7 17  1  0  0  0  0
  7 18  1  0  0  0  0
  8 19  1  0  0  0  0
  9 20  1  0  0  0  0
 10 21  1  0  0  0  0
 10 22  1  0  0  0  0
 11 23  1  0  0  0  0
 11 24  1  0  0  0  0
M  END
> <HYBRID receptor title>
5S18(A) > WOY(A-201)

> <HYBRID receptor filename>
experiments/data/docking/5s18.oedu

> <HYBRID Chemgauss4 score>
-5.732086

> <HYBRID receptor title>
5S18(A) > WOY(A-201)

> <HYBRID receptor filename>
experiments/data/docking/5s18.oedu

> <Dock Type>
Hybrid

$$$$
MOL0318
  -OEChem-07032415493D

 27 27  0     0  0  0  0  0  0999 V2000
   -2.9754   15.3782   -0.6223 C   0  0  0  0  0  0  0  0  0  0  0  0
   -4.3638   15.4047    1.3359 C   0  0  0  0  0  0  0  0  0  0  0  0
   -1.8716   15.0563    0.0759 C   0  0  0  0  0  0  0  0  0  0  0  0
   -4.2661   15.5614    0.0089 C   0  0  0  0  0  0  0  0  0  0  0  0
   -1.9993   14.8839    1.5661 C   0  0  0  0  0  0  0  0  0  0  0  0
   -6.5833   13.5958   -0.0723 C   0  0  0  0  0  0  0  0  0  0  0  0
   -5.1196   13.5739   -2.1153 C   0  0  0  0  0  0  0  0  0  0  0  0
   -7.4702   14.4507   -2.2648 C   0  0  0  0  0  0  0  0  0  0  0  0
   -6.2312   14.3215   -1.3740 C   0  0  0  0  0  0  0  0  0  0  0  0
   -3.2667   15.0764    2.0899 N   0  0  0  0  0  0  0  0  0  0  0  0
   -0.6298   14.8695   -0.4550 N   0  0  0  0  0  0  0  0  0  0  0  0
   -1.0252   14.5900    2.2568 O   0  0  0  0  0  0  0  0  0  0  0  0
   -5.6331   15.9762   -0.9708 S   0  0  0  0  0  0  0  0  0  0  0  0
   -2.9084   15.5080   -1.6996 H   0  0  0  0  0  0  0  0  0  0  0  0
   -5.2860   15.5217    1.8931 H   0  0  0  0  0  0  0  0  0  0  0  0
   -7.3780   14.1112    0.4788 H   0  0  0  0  0  0  0  0  0  0  0  0
   -6.9392   12.5796   -0.2796 H   0  0  0  0  0  0  0  0  0  0  0  0
   -5.7137   13.5056    0.5894 H   0  0  0  0  0  0  0  0  0  0  0  0
   -4.8480   14.0733   -3.0523 H   0  0  0  0  0  0  0  0  0  0  0  0
   -4.2122   13.5216   -1.5016 H   0  0  0  0  0  0  0  0  0  0  0  0
   -5.4103   12.5436   -2.3515 H   0  0  0  0  0  0  0  0  0  0  0  0
   -7.2230   14.9698   -3.1983 H   0  0  0  0  0  0  0  0  0  0  0  0
   -7.8788   13.4708   -2.5375 H   0  0  0  0  0  0  0  0  0  0  0  0
   -8.2646   15.0254   -1.7748 H   0  0  0  0  0  0  0  0  0  0  0  0
   -3.4014   14.9708    3.0913 H   0  0  0  0  0  0  0  0  0  0  0  0
   -0.5094   14.9756   -1.4392 H   0  0  0  0  0  0  0  0  0  0  0  0
    0.1210   14.6324    0.1563 H   0  0  0  0  0  0  0  0  0  0  0  0
  1  3  2  0  0  0  0
  1  4  1  0  0  0  0
  2  4  2  0  0  0  0
  2 10  1  0  0  0  0
  3  5  1  0  0  0  0
  3 11  1  0  0  0  0
  4 13  1  0  0  0  0
  5 10  1  0  0  0  0
  5 12  2  0  0  0  0
  6  9  1  0  0  0  0
  7  9  1  0  0  0  0
  8  9  1  0  0  0  0
  9 13  1  0  0  0  0
  1 14  1  0  0  0  0
  2 15  1  0  0  0  0
  6 16  1  0  0  0  0
  6 17  1  0  0  0  0
  6 18  1  0  0  0  0
  7 19  1  0  0  0  0
  7 20  1  0  0  0  0
  7 21  1  0  0  0  0
  8 22  1  0  0  0  0
  8 23  1  0  0  0  0
  8 24  1  0  0  0  0
 10 25  1  0  0  0  0
 11 26  1  0  0  0  0
 11 27  1  0  0  0  0
M  END
> <HYBRID receptor title>
5S18(A) > WOY(A-201)

> <HYBRID receptor filename>
experiments/data/docking/5s18.oedu

> <HYBRID Chemgauss4 score>
-5.696248

> <HYBRID receptor title>
5S18(A) > WOY(A-201)

> <HYBRID receptor filename>
experiments/data/docking/5s18.oedu

> <Dock Type>
Hybrid

$$$$
MOL0125
  -OEChem-07032415493D

 21 21  0     0  0  0  0  0  0999 V2000
   -1.9479   14.9016   -0.9317 C   0  0  0  0  0  0  0  0  0  0  0  0
   -3.9699   15.1354    0.3411 C   0  0  0  0  0  0  0  0  0  0  0  0
   -1.1956   14.6962    0.1644 C   0  0  0  0  0  0  0  0  0  0  0  0
   -3.3765   15.1291   -0.8601 C   0  0  0  0  0  0  0  0  0  0  0  0
   -1.8785   14.7065    1.5062 C   0  0  0  0  0  0  0  0  0  0  0  0
   -4.7058   13.6789   -2.7152 C   0  0  0  0  0  0  0  0  0  0  0  0
   -6.0275   13.3001   -2.0891 C   0  0  0  0  0  0  0  0  0  0  0  0
   -3.2449   14.9305    1.4868 N   0  0  0  0  0  0  0  0  0  0  0  0
    0.1499   14.4763    0.1670 N   0  0  0  0  0  0  0  0  0  0  0  0
   -1.2430   14.5247    2.5432 O   0  0  0  0  0  0  0  0  0  0  0  0
   -5.9922   13.4014   -0.7435 F   0  0  0  0  0  0  0  0  0  0  0  0
   -7.0050   14.1252   -2.5308 F   0  0  0  0  0  0  0  0  0  0  0  0
   -6.3905   12.0396   -2.4075 F   0  0  0  0  0  0  0  0  0  0  0  0
   -4.2645   15.3851   -2.3253 S   0  0  0  0  0  0  0  0  0  0  0  0
   -1.4775   14.8987   -1.9119 H   0  0  0  0  0  0  0  0  0  0  0  0
   -5.0308   15.2974    0.4915 H   0  0  0  0  0  0  0  0  0  0  0  0
   -3.9121   13.0205   -2.3487 H   0  0  0  0  0  0  0  0  0  0  0  0
   -4.7593   13.5717   -3.8025 H   0  0  0  0  0  0  0  0  0  0  0  0
   -3.7488   14.9463    2.3687 H   0  0  0  0  0  0  0  0  0  0  0  0
    0.6341   14.4629   -0.7046 H   0  0  0  0  0  0  0  0  0  0  0  0
    0.6099   14.3356    1.0401 H   0  0  0  0  0  0  0  0  0  0  0  0
  1  3  2  0  0  0  0
  1  4  1  0  0  0  0
  2  4  2  0  0  0  0
  2  8  1  0  0  0  0
  3  5  1  0  0  0  0
  3  9  1  0  0  0  0
  4 14  1  0  0  0  0
  5  8  1  0  0  0  0
  5 10  2  0  0  0  0
  6  7  1  0  0  0  0
  6 14  1  0  0  0  0
  7 11  1  0  0  0  0
  7 12  1  0  0  0  0
  7 13  1  0  0  0  0
  1 15  1  0  0  0  0
  2 16  1  0  0  0  0
  6 17  1  0  0  0  0
  6 18  1  0  0  0  0
  8 19  1  0  0  0  0
  9 20  1  0  0  0  0
  9 21  1  0  0  0  0
M  END
> <HYBRID receptor title>
5S18(A) > WOY(A-201)

> <HYBRID receptor filename>
experiments/data/docking/5s18.oedu

> <HYBRID Chemgauss4 score>
-5.695472

> <HYBRID receptor title>
5S18(A) > WOY(A-201)

> <HYBRID receptor filename>
experiments/data/docking/5s18.oedu

> <Dock Type>
Hybrid

$$$$
MOL0388
  -OEChem-07032415493D

 19 19  0     0  0  0  0  0  0999 V2000
   -2.4388   14.9518   -0.9100 C   0  0  0  0  0  0  0  0  0  0  0  0
   -4.0575   14.8728    0.9034 C   0  0  0  0  0  0  0  0  0  0  0  0
   -1.4475   14.8102   -0.0228 C   0  0  0  0  0  0  0  0  0  0  0  0
   -3.7810   14.9804   -0.3998 C   0  0  0  0  0  0  0  0  0  0  0  0
   -1.6824   14.6838    1.4411 C   0  0  0  0  0  0  0  0  0  0  0  0
   -5.8198   14.1629   -1.5207 C   0  0  0  0  0  0  0  0  0  0  0  0
   -3.0267   14.7271    1.8073 N   0  0  0  0  0  0  0  0  0  0  0  0
   -0.1303   14.7701   -0.3956 N   0  0  0  0  0  0  0  0  0  0  0  0
   -4.7812   15.1260   -1.3275 N   0  0  0  0  0  0  0  0  0  0  0  0
   -0.7633   14.5535    2.2450 O   0  0  0  0  0  0  0  0  0  0  0  0
   -7.0453   14.6944   -1.3010 F   0  0  0  0  0  0  0  0  0  0  0  0
   -5.7970   13.7030   -2.7938 F   0  0  0  0  0  0  0  0  0  0  0  0
   -5.6759   13.0967   -0.6991 F   0  0  0  0  0  0  0  0  0  0  0  0
   -2.2522   15.0427   -1.9745 H   0  0  0  0  0  0  0  0  0  0  0  0
   -5.0565   14.8908    1.3207 H   0  0  0  0  0  0  0  0  0  0  0  0
   -3.2593   14.6471    2.7928 H   0  0  0  0  0  0  0  0  0  0  0  0
    0.0895   14.8497   -1.3620 H   0  0  0  0  0  0  0  0  0  0  0  0
    0.5580   14.6630    0.3132 H   0  0  0  0  0  0  0  0  0  0  0  0
   -4.7712   15.9539   -1.8924 H   0  0  0  0  0  0  0  0  0  0  0  0
  1  3  2  0  0  0  0
  1  4  1  0  0  0  0
  2  4  2  0  0  0  0
  2  7  1  0  0  0  0
  3  5  1  0  0  0  0
  3  8  1  0  0  0  0
  4  9  1  0  0  0  0
  5  7  1  0  0  0  0
  5 10  2  0  0  0  0
  6  9  1  0  0  0  0
  6 11  1  0  0  0  0
  6 12  1  0  0  0  0
  6 13  1  0  0  0  0
  1 14  1  0  0  0  0
  2 15  1  0  0  0  0
  7 16  1  0  0  0  0
  8 17  1  0  0  0  0
  8 18  1  0  0  0  0
  9 19  1  0  0  0  0
M  END
> <HYBRID receptor title>
5S18(A) > WOY(A-201)

> <HYBRID receptor filename>
experiments/data/docking/5s18.oedu

> <HYBRID Chemgauss4 score>
-5.682932

> <HYBRID receptor title>
5S18(A) > WOY(A-201)

> <HYBRID receptor filename>
experiments/data/docking/5s18.oedu

> <Dock Type>
Hybrid

$$$$
MOL0181
  -OEChem-07032415493D

 26 26  0     0  0  0  0  0  0999 V2000
   -4.3447   15.0140    0.5326 C   0  0  0  0  0  0  0  0  0  0  0  0
   -3.9135   14.3298   -1.7243 C   0  0  0  0  0  0  0  0  0  0  0  0
   -4.8135   14.6342   -0.7800 C   0  0  0  0  0  0  0  0  0  0  0  0
   -3.0389   15.0719    0.8405 C   0  0  0  0  0  0  0  0  0  0  0  0
   -2.0309   14.7265   -0.2274 C   0  0  0  0  0  0  0  0  0  0  0  0
   -1.8983   12.5782   -3.0171 C   0  0  0  0  0  0  0  0  0  0  0  0
   -1.8419   14.9871   -3.7362 C   0  0  0  0  0  0  0  0  0  0  0  0
   -1.6612   14.0167   -2.5757 C   0  0  0  0  0  0  0  0  0  0  0  0
   -6.2915   14.6025   -1.0106 C   0  0  0  0  0  0  0  0  0  0  0  0
   -2.5540   14.3689   -1.4767 N   0  0  0  0  0  0  0  0  0  0  0  0
   -2.5377   15.4231    2.0596 N   0  0  0  0  0  0  0  0  0  0  0  0
   -0.8288   14.7727    0.0365 O   0  0  0  0  0  0  0  0  0  0  0  0
   -6.9636   14.9524    0.1061 F   0  0  0  0  0  0  0  0  0  0  0  0
   -6.6513   15.4552   -1.9924 F   0  0  0  0  0  0  0  0  0  0  0  0
   -6.6999   13.3668   -1.3678 F   0  0  0  0  0  0  0  0  0  0  0  0
   -5.0929   15.2577    1.2820 H   0  0  0  0  0  0  0  0  0  0  0  0
   -4.2121   14.0385   -2.7259 H   0  0  0  0  0  0  0  0  0  0  0  0
   -2.9128   12.4549   -3.4112 H   0  0  0  0  0  0  0  0  0  0  0  0
   -1.7746   11.8850   -2.1779 H   0  0  0  0  0  0  0  0  0  0  0  0
   -1.2004   12.2842   -3.8084 H   0  0  0  0  0  0  0  0  0  0  0  0
   -2.8542   14.9255   -4.1515 H   0  0  0  0  0  0  0  0  0  0  0  0
   -1.1288   14.7745   -4.5387 H   0  0  0  0  0  0  0  0  0  0  0  0
   -1.6842   16.0204   -3.4068 H   0  0  0  0  0  0  0  0  0  0  0  0
   -0.6402   14.1066   -2.1876 H   0  0  0  0  0  0  0  0  0  0  0  0
   -3.1757   15.6575    2.7887 H   0  0  0  0  0  0  0  0  0  0  0  0
   -1.5492   15.4344    2.1843 H   0  0  0  0  0  0  0  0  0  0  0  0
  1  3  1  0  0  0  0
  1  4  2  0  0  0  0
  2  3  2  0  0  0  0
  2 10  1  0  0  0  0
  3  9  1  0  0  0  0
  4  5  1  0  0  0  0
  4 11  1  0  0  0  0
  5 10  1  0  0  0  0
  5 12  2  0  0  0  0
  6  8  1  0  0  0  0
  7  8  1  0  0  0  0
  8 10  1  0  0  0  0
  9 13  1  0  0  0  0
  9 14  1  0  0  0  0
  9 15  1  0  0  0  0
  1 16  1  0  0  0  0
  2 17  1  0  0  0  0
  6 18  1  0  0  0  0
  6 19  1  0  0  0  0
  6 20  1  0  0  0  0
  7 21  1  0  0  0  0
  7 22  1  0  0  0  0
  7 23  1  0  0  0  0
  8 24  1  0  0  0  0
 11 25  1  0  0  0  0
 11 26  1  0  0  0  0
M  END
> <HYBRID receptor title>
5S18(A) > WOY(A-201)

> <HYBRID receptor filename>
experiments/data/docking/5s18.oedu

> <HYBRID Chemgauss4 score>
-5.676407

> <HYBRID receptor title>
5S18(A) > WOY(A-201)

> <HYBRID receptor filename>
experiments/data/docking/5s18.oedu

> <Dock Type>
Hybrid

$$$$
MOL0159
  -OEChem-07032415493D

 21 21  0     0  0  0  0  0  0999 V2000
   -3.1563   15.0417   -0.3686 C   0  0  0  0  0  0  0  0  0  0  0  0
   -5.2073   14.4167   -1.3983 C   0  0  0  0  0  0  0  0  0  0  0  0
   -3.8632   14.7302   -1.5247 C   0  0  0  0  0  0  0  0  0  0  0  0
   -3.8053   15.0306    0.8610 C   0  0  0  0  0  0  0  0  0  0  0  0
   -5.1516   14.7038    0.8810 C   0  0  0  0  0  0  0  0  0  0  0  0
   -7.2046   14.3690    2.2583 C   0  0  0  0  0  0  0  0  0  0  0  0
   -3.1981   14.7336   -2.8550 C   0  0  0  0  0  0  0  0  0  0  0  0
   -5.8715   14.3955   -0.2209 N   0  0  0  0  0  0  0  0  0  0  0  0
   -3.0911   15.3455    2.0322 N   0  0  0  0  0  0  0  0  0  0  0  0
   -5.8212   14.6910    2.1303 N   0  0  0  0  0  0  0  0  0  0  0  0
   -1.8718   15.0636   -2.8104 F   0  0  0  0  0  0  0  0  0  0  0  0
   -3.7629   15.6217   -3.7266 F   0  0  0  0  0  0  0  0  0  0  0  0
   -3.2397   13.5240   -3.4918 F   0  0  0  0  0  0  0  0  0  0  0  0
   -2.1002   15.2948   -0.4290 H   0  0  0  0  0  0  0  0  0  0  0  0
   -5.8112   14.1658   -2.2649 H   0  0  0  0  0  0  0  0  0  0  0  0
   -7.6393   14.1444    1.2801 H   0  0  0  0  0  0  0  0  0  0  0  0
   -7.3312   13.4977    2.9070 H   0  0  0  0  0  0  0  0  0  0  0  0
   -7.7485   15.2087    2.6997 H   0  0  0  0  0  0  0  0  0  0  0  0
   -2.1076   15.5234    1.9735 H   0  0  0  0  0  0  0  0  0  0  0  0
   -3.5518   15.2838    2.9189 H   0  0  0  0  0  0  0  0  0  0  0  0
   -5.2729   14.9220    2.9330 H   0  0  0  0  0  0  0  0  0  0  0  0
  1  3  2  0  0  0  0
  1  4  1  0  0  0  0
  2  3  1  0  0  0  0
  2  8  2  0  0  0  0
  3  7  1  0  0  0  0
  4  5  2  0  0  0  0
  4  9  1  0  0  0  0
  5  8  1  0  0  0  0
  5 10  1  0  0  0  0
  6 10  1  0  0  0  0
  7 11  1  0  0  0  0
  7 12  1  0  0  0  0
  7 13  1  0  0  0  0
  1 14  1  0  0  0  0
  2 15  1  0  0  0  0
  6 16  1  0  0  0  0
  6 17  1  0  0  0  0
  6 18  1  0  0  0  0
  9 19  1  0  0  0  0
  9 20  1  0  0  0  0
 10 21  1  0  0  0  0
M  END
> <HYBRID receptor title>
5S18(A) > WOY(A-201)

> <HYBRID receptor filename>
experiments/data/docking/5s18.oedu

> <HYBRID Chemgauss4 score>
-5.671219

> <HYBRID receptor title>
5S18(A) > WOY(A-201)

> <HYBRID receptor filename>
experiments/data/docking/5s18.oedu

> <Dock Type>
Hybrid

$$$$
MOL0236
  -OEChem-07032415493D

 33 34  0     0  0  0  0  0  0999 V2000
   -2.5599   14.0834   -4.2041 C   0  0  0  0  0  0  0  0  0  0  0  0
   -2.5272   12.8326   -2.1372 C   0  0  0  0  0  0  0  0  0  0  0  0
   -1.5713   13.2482   -4.7244 C   0  0  0  0  0  0  0  0  0  0  0  0
   -1.5386   11.9974   -2.6575 C   0  0  0  0  0  0  0  0  0  0  0  0
   -3.0379   13.8753   -2.9104 C   0  0  0  0  0  0  0  0  0  0  0  0
   -1.0606   12.2054   -3.9513 C   0  0  0  0  0  0  0  0  0  0  0  0
   -1.2944   15.3620   -0.6699 C   0  0  0  0  0  0  0  0  0  0  0  0
   -3.2026   15.4034    0.7839 C   0  0  0  0  0  0  0  0  0  0  0  0
   -2.7098   15.5808   -0.4495 C   0  0  0  0  0  0  0  0  0  0  0  0
   -0.4592   14.9881    0.3148 C   0  0  0  0  0  0  0  0  0  0  0  0
   -1.0320   14.7941    1.6938 C   0  0  0  0  0  0  0  0  0  0  0  0
   -4.1083   14.7778   -2.3474 C   0  0  0  0  0  0  0  0  0  0  0  0
   -3.5444   15.9949   -1.6193 C   0  0  0  0  0  0  0  0  0  0  0  0
   -0.0030   11.3133   -4.5077 C   0  0  0  0  0  0  0  0  0  0  0  0
   -2.3924   15.0230    1.8214 N   0  0  0  0  0  0  0  0  0  0  0  0
    0.8783   14.7666    0.1731 N   0  0  0  0  0  0  0  0  0  0  0  0
   -0.3182   14.4527    2.6350 O   0  0  0  0  0  0  0  0  0  0  0  0
    0.3703   11.6316   -5.7824 F   0  0  0  0  0  0  0  0  0  0  0  0
   -0.3914   10.0056   -4.5564 F   0  0  0  0  0  0  0  0  0  0  0  0
    1.1552   11.3247   -3.7835 F   0  0  0  0  0  0  0  0  0  0  0  0
   -2.9529   14.8924   -4.8141 H   0  0  0  0  0  0  0  0  0  0  0  0
   -2.8928   12.6639   -1.1277 H   0  0  0  0  0  0  0  0  0  0  0  0
   -1.2050   13.4175   -5.7336 H   0  0  0  0  0  0  0  0  0  0  0  0
   -1.1468   11.1873   -2.0481 H   0  0  0  0  0  0  0  0  0  0  0  0
   -0.9162   15.5119   -1.6776 H   0  0  0  0  0  0  0  0  0  0  0  0
   -4.2470   15.5461    1.0324 H   0  0  0  0  0  0  0  0  0  0  0  0
   -4.7466   15.1153   -3.1740 H   0  0  0  0  0  0  0  0  0  0  0  0
   -4.7618   14.2039   -1.6774 H   0  0  0  0  0  0  0  0  0  0  0  0
   -2.9333   16.6191   -2.2787 H   0  0  0  0  0  0  0  0  0  0  0  0
   -4.3680   16.6019   -1.2306 H   0  0  0  0  0  0  0  0  0  0  0  0
   -2.8138   14.9017    2.7377 H   0  0  0  0  0  0  0  0  0  0  0  0
    1.2905   14.8864   -0.7271 H   0  0  0  0  0  0  0  0  0  0  0  0
    1.4052   14.4915    0.9734 H   0  0  0  0  0  0  0  0  0  0  0  0
  1  3  2  0  0  0  0
  1  5  1  0  0  0  0
  2  4  1  0  0  0  0
  2  5  2  0  0  0  0
  3  6  1  0  0  0  0
  4  6  2  0  0  0  0
  5 12  1  0  0  0  0
  6 14  1  0  0  0  0
  7  9  1  0  0  0  0
  7 10  2  0  0  0  0
  8  9  2  0  0  0  0
  8 15  1  0  0  0  0
  9 13  1  0  0  0  0
 10 11  1  0  0  0  0
 10 16  1  0  0  0  0
 11 15  1  0  0  0  0
 11 17  2  0  0  0  0
 12 13  1  0  0  0  0
 14 18  1  0  0  0  0
 14 19  1  0  0  0  0
 14 20  1  0  0  0  0
  1 21  1  0  0  0  0
  2 22  1  0  0  0  0
  3 23  1  0  0  0  0
  4 24  1  0  0  0  0
  7 25  1  0  0  0  0
  8 26  1  0  0  0  0
 12 27  1  0  0  0  0
 12 28  1  0  0  0  0
 13 29  1  0  0  0  0
 13 30  1  0  0  0  0
 15 31  1  0  0  0  0
 16 32  1  0  0  0  0
 16 33  1  0  0  0  0
M  END
> <HYBRID receptor title>
5S18(A) > WOY(A-201)

> <HYBRID receptor filename>
experiments/data/docking/5s18.oedu

> <HYBRID Chemgauss4 score>
-5.641281

> <HYBRID receptor title>
5S18(A) > WOY(A-201)

> <HYBRID receptor filename>
experiments/data/docking/5s18.oedu

> <Dock Type>
Hybrid

$$$$
MOL0185
  -OEChem-07032415493D

 21 22  0     0  0  0  0  0  0999 V2000
    0.9438   14.6513   -0.9669 C   0  0  0  0  0  0  0  0  0  0  0  0
   -0.0072   14.7584    0.0210 C   0  0  0  0  0  0  0  0  0  0  0  0
   -0.9276   14.6904   -1.9808 C   0  0  0  0  0  0  0  0  0  0  0  0
   -3.6350   14.8935   -0.9131 C   0  0  0  0  0  0  0  0  0  0  0  0
   -2.6144   14.9640    1.2550 C   0  0  0  0  0  0  0  0  0  0  0  0
   -2.4467   14.8802   -0.0753 C   0  0  0  0  0  0  0  0  0  0  0  0
   -4.8796   14.9887   -0.4147 C   0  0  0  0  0  0  0  0  0  0  0  0
   -5.0377   15.0835    1.0780 C   0  0  0  0  0  0  0  0  0  0  0  0
    0.3648   14.6096   -2.2100 N   0  0  0  0  0  0  0  0  0  0  0  0
   -1.2009   14.7821   -0.6440 N   0  0  0  0  0  0  0  0  0  0  0  0
   -3.8639   15.0630    1.8111 N   0  0  0  0  0  0  0  0  0  0  0  0
   -6.0258   15.0065   -1.1525 N   0  0  0  0  0  0  0  0  0  0  0  0
   -6.1501   15.1729    1.5944 O   0  0  0  0  0  0  0  0  0  0  0  0
    2.0162   14.6033   -0.8464 H   0  0  0  0  0  0  0  0  0  0  0  0
    0.0659   14.8183    1.0986 H   0  0  0  0  0  0  0  0  0  0  0  0
   -1.7011   14.6874   -2.7376 H   0  0  0  0  0  0  0  0  0  0  0  0
   -3.4855   14.8230   -1.9878 H   0  0  0  0  0  0  0  0  0  0  0  0
   -1.7903   14.9606    1.9591 H   0  0  0  0  0  0  0  0  0  0  0  0
   -3.9211   15.1242    2.8235 H   0  0  0  0  0  0  0  0  0  0  0  0
   -5.9566   14.9449   -2.1455 H   0  0  0  0  0  0  0  0  0  0  0  0
   -6.8993   15.0805   -0.6779 H   0  0  0  0  0  0  0  0  0  0  0  0
  1  2  2  0  0  0  0
  1  9  1  0  0  0  0
  2 10  1  0  0  0  0
  3  9  2  0  0  0  0
  3 10  1  0  0  0  0
  4  6  1  0  0  0  0
  4  7  2  0  0  0  0
  5  6  2  0  0  0  0
  5 11  1  0  0  0  0
  6 10  1  0  0  0  0
  7  8  1  0  0  0  0
  7 12  1  0  0  0  0
  8 11  1  0  0  0  0
  8 13  2  0  0  0  0
  1 14  1  0  0  0  0
  2 15  1  0  0  0  0
  3 16  1  0  0  0  0
  4 17  1  0  0  0  0
  5 18  1  0  0  0  0
 11 19  1  0  0  0  0
 12 20  1  0  0  0  0
 12 21  1  0  0  0  0
M  END
> <HYBRID receptor title>
5S18(A) > WOY(A-201)

> <HYBRID receptor filename>
experiments/data/docking/5s18.oedu

> <HYBRID Chemgauss4 score>
-5.639499

> <HYBRID receptor title>
5S18(A) > WOY(A-201)

> <HYBRID receptor filename>
experiments/data/docking/5s18.oedu

> <Dock Type>
Hybrid

$$$$
MOL0282
  -OEChem-07032415493D

 29 30  0     0  0  0  0  0  0999 V2000
   -1.8282   14.7409    1.4438 C   0  0  0  0  0  0  0  0  0  0  0  0
   -2.7356   15.1496   -0.7753 C   0  0  0  0  0  0  0  0  0  0  0  0
   -0.6076   14.6067    0.9130 C   0  0  0  0  0  0  0  0  0  0  0  0
   -2.9113   15.0224    0.5435 C   0  0  0  0  0  0  0  0  0  0  0  0
   -0.3393   14.7366   -0.5449 C   0  0  0  0  0  0  0  0  0  0  0  0
   -7.5862   13.8192    1.0939 C   0  0  0  0  0  0  0  0  0  0  0  0
   -7.3390   14.0687   -0.3951 C   0  0  0  0  0  0  0  0  0  0  0  0
   -6.3664   14.3724    1.8249 C   0  0  0  0  0  0  0  0  0  0  0  0
   -5.9818   14.7595   -0.4891 C   0  0  0  0  0  0  0  0  0  0  0  0
   -5.2614   14.3204    0.7786 C   0  0  0  0  0  0  0  0  0  0  0  0
   -1.4724   15.0092   -1.3096 N   0  0  0  0  0  0  0  0  0  0  0  0
    0.4978   14.3378    1.6755 N   0  0  0  0  0  0  0  0  0  0  0  0
   -4.1421   15.1549    1.1046 N   0  0  0  0  0  0  0  0  0  0  0  0
    0.7864   14.6119   -1.0193 O   0  0  0  0  0  0  0  0  0  0  0  0
   -2.0085   14.6436    2.5089 H   0  0  0  0  0  0  0  0  0  0  0  0
   -3.5293   15.3610   -1.4809 H   0  0  0  0  0  0  0  0  0  0  0  0
   -8.5085   14.2969    1.4396 H   0  0  0  0  0  0  0  0  0  0  0  0
   -7.6853   12.7431    1.2776 H   0  0  0  0  0  0  0  0  0  0  0  0
   -7.3188   13.1136   -0.9326 H   0  0  0  0  0  0  0  0  0  0  0  0
   -8.1292   14.6801   -0.8426 H   0  0  0  0  0  0  0  0  0  0  0  0
   -6.5694   15.4055    2.1350 H   0  0  0  0  0  0  0  0  0  0  0  0
   -6.1254   13.7919    2.7207 H   0  0  0  0  0  0  0  0  0  0  0  0
   -5.4406   14.4809   -1.3986 H   0  0  0  0  0  0  0  0  0  0  0  0
   -6.1289   15.8471   -0.5018 H   0  0  0  0  0  0  0  0  0  0  0  0
   -4.9155   13.2707    0.6630 H   0  0  0  0  0  0  0  0  0  0  0  0
   -1.3616   15.1099   -2.3143 H   0  0  0  0  0  0  0  0  0  0  0  0
    0.3812   14.2400    2.6581 H   0  0  0  0  0  0  0  0  0  0  0  0
    1.3763   14.2500    1.2191 H   0  0  0  0  0  0  0  0  0  0  0  0
   -4.2710   15.8846    1.7938 H   0  0  0  0  0  0  0  0  0  0  0  0
  1  3  2  0  0  0  0
  1  4  1  0  0  0  0
  2  4  2  0  0  0  0
  2 11  1  0  0  0  0
  3  5  1  0  0  0  0
  3 12  1  0  0  0  0
  4 13  1  0  0  0  0
  5 11  1  0  0  0  0
  5 14  2  0  0  0  0
  6  7  1  0  0  0  0
  6  8  1  0  0  0  0
  7  9  1  0  0  0  0
  8 10  1  0  0  0  0
  9 10  1  0  0  0  0
 10 13  1  0  0  0  0
  1 15  1  0  0  0  0
  2 16  1  0  0  0  0
  6 17  1  0  0  0  0
  6 18  1  0  0  0  0
  7 19  1  0  0  0  0
  7 20  1  0  0  0  0
  8 21  1  0  0  0  0
  8 22  1  0  0  0  0
  9 23  1  0  0  0  0
  9 24  1  0  0  0  0
 10 25  1  0  0  0  0
 11 26  1  0  0  0  0
 12 27  1  0  0  0  0
 12 28  1  0  0  0  0
 13 29  1  0  0  0  0
M  END
> <HYBRID receptor title>
5S18(A) > WOY(A-201)

> <HYBRID receptor filename>
experiments/data/docking/5s18.oedu

> <HYBRID Chemgauss4 score>
-5.606805

> <HYBRID receptor title>
5S18(A) > WOY(A-201)

> <HYBRID receptor filename>
experiments/data/docking/5s18.oedu

> <Dock Type>
Hybrid

$$$$
MOL0140
  -OEChem-07032415493D

 19 19  0     0  0  0  0  0  0999 V2000
   -3.0199   14.6927   -1.1793 C   0  0  0  0  0  0  0  0  0  0  0  0
   -4.4016   14.3537    0.7605 C   0  0  0  0  0  0  0  0  0  0  0  0
   -4.2917   14.3894   -0.5714 C   0  0  0  0  0  0  0  0  0  0  0  0
   -1.9225   14.9456   -0.4442 C   0  0  0  0  0  0  0  0  0  0  0  0
   -2.0505   14.9050    1.0579 C   0  0  0  0  0  0  0  0  0  0  0  0
   -5.4804   14.1154   -1.3787 C   0  0  0  0  0  0  0  0  0  0  0  0
   -6.6644   15.0242   -1.1949 C   0  0  0  0  0  0  0  0  0  0  0  0
   -3.3106   14.6049    1.5527 N   0  0  0  0  0  0  0  0  0  0  0  0
   -0.6886   15.2393   -0.9436 N   0  0  0  0  0  0  0  0  0  0  0  0
   -1.0821   15.1280    1.7822 O   0  0  0  0  0  0  0  0  0  0  0  0
   -5.5017   13.1750   -2.1763 O   0  0  0  0  0  0  0  0  0  0  0  0
   -6.4355   15.9930   -0.2737 F   0  0  0  0  0  0  0  0  0  0  0  0
   -7.7627   14.3420   -0.7831 F   0  0  0  0  0  0  0  0  0  0  0  0
   -7.0007   15.6526   -2.3501 F   0  0  0  0  0  0  0  0  0  0  0  0
   -2.9691   14.7125   -2.2642 H   0  0  0  0  0  0  0  0  0  0  0  0
   -5.3217   14.1334    1.2880 H   0  0  0  0  0  0  0  0  0  0  0  0
   -3.4434   14.5666    2.5591 H   0  0  0  0  0  0  0  0  0  0  0  0
   -0.5687   15.2745   -1.9330 H   0  0  0  0  0  0  0  0  0  0  0  0
    0.0577   15.4103   -0.3052 H   0  0  0  0  0  0  0  0  0  0  0  0
  1  3  1  0  0  0  0
  1  4  2  0  0  0  0
  2  3  2  0  0  0  0
  2  8  1  0  0  0  0
  3  6  1  0  0  0  0
  4  5  1  0  0  0  0
  4  9  1  0  0  0  0
  5  8  1  0  0  0  0
  5 10  2  0  0  0  0
  6  7  1  0  0  0  0
  6 11  2  0  0  0  0
  7 12  1  0  0  0  0
  7 13  1  0  0  0  0
  7 14  1  0  0  0  0
  1 15  1  0  0  0  0
  2 16  1  0  0  0  0
  8 17  1  0  0  0  0
  9 18  1  0  0  0  0
  9 19  1  0  0  0  0
M  END
> <HYBRID receptor title>
5S18(A) > WOY(A-201)

> <HYBRID receptor filename>
experiments/data/docking/5s18.oedu

> <HYBRID Chemgauss4 score>
-5.551704

> <HYBRID receptor title>
5S18(A) > WOY(A-201)

> <HYBRID receptor filename>
experiments/data/docking/5s18.oedu

> <Dock Type>
Hybrid

$$$$
MOL0314
  -OEChem-07032415493D

 25 25  0     0  0  0  0  0  0999 V2000
   -3.5344   15.0194   -0.2258 C   0  0  0  0  0  0  0  0  0  0  0  0
   -1.6682   14.2614   -1.5261 C   0  0  0  0  0  0  0  0  0  0  0  0
   -2.9725   14.5628   -1.4760 C   0  0  0  0  0  0  0  0  0  0  0  0
   -2.7964   15.1515    0.8882 C   0  0  0  0  0  0  0  0  0  0  0  0
   -1.3286   14.8091    0.8249 C   0  0  0  0  0  0  0  0  0  0  0  0
    0.5557   14.0187   -0.5822 C   0  0  0  0  0  0  0  0  0  0  0  0
    1.3390   15.0952   -1.3162 C   0  0  0  0  0  0  0  0  0  0  0  0
   -3.8889   14.4520   -2.6534 C   0  0  0  0  0  0  0  0  0  0  0  0
   -0.8497   14.3748   -0.4179 N   0  0  0  0  0  0  0  0  0  0  0  0
   -3.2705   15.5771    2.0944 N   0  0  0  0  0  0  0  0  0  0  0  0
    2.7219   14.7384   -1.4849 N   0  0  0  0  0  0  0  0  0  0  0  0
   -0.6358   14.9228    1.8368 O   0  0  0  0  0  0  0  0  0  0  0  0
   -5.1459   14.8168   -2.3250 F   0  0  0  0  0  0  0  0  0  0  0  0
   -3.4811   15.2446   -3.6664 F   0  0  0  0  0  0  0  0  0  0  0  0
   -3.9343   13.1845   -3.1147 F   0  0  0  0  0  0  0  0  0  0  0  0
   -4.5942   15.2591   -0.2095 H   0  0  0  0  0  0  0  0  0  0  0  0
   -1.1964   13.9142   -2.4394 H   0  0  0  0  0  0  0  0  0  0  0  0
    0.5846   13.0803   -1.1429 H   0  0  0  0  0  0  0  0  0  0  0  0
    0.9684   13.8415    0.4162 H   0  0  0  0  0  0  0  0  0  0  0  0
    1.3103   16.0474   -0.7777 H   0  0  0  0  0  0  0  0  0  0  0  0
    0.9218   15.2480   -2.3161 H   0  0  0  0  0  0  0  0  0  0  0  0
   -4.2361   15.8120    2.1721 H   0  0  0  0  0  0  0  0  0  0  0  0
   -2.6372   15.6402    2.8611 H   0  0  0  0  0  0  0  0  0  0  0  0
    3.1832   14.6748   -0.5732 H   0  0  0  0  0  0  0  0  0  0  0  0
    3.2179   15.4779   -1.9906 H   0  0  0  0  0  0  0  0  0  0  0  0
  1  3  1  0  0  0  0
  1  4  2  0  0  0  0
  2  3  2  0  0  0  0
  2  9  1  0  0  0  0
  3  8  1  0  0  0  0
  4  5  1  0  0  0  0
  4 10  1  0  0  0  0
  5  9  1  0  0  0  0
  5 12  2  0  0  0  0
  6  7  1  0  0  0  0
  6  9  1  0  0  0  0
  7 11  1  0  0  0  0
  8 13  1  0  0  0  0
  8 14  1  0  0  0  0
  8 15  1  0  0  0  0
  1 16  1  0  0  0  0
  2 17  1  0  0  0  0
  6 18  1  0  0  0  0
  6 19  1  0  0  0  0
  7 20  1  0  0  0  0
  7 21  1  0  0  0  0
 10 22  1  0  0  0  0
 10 23  1  0  0  0  0
 11 24  1  0  0  0  0
 11 25  1  0  0  0  0
M  END
> <HYBRID receptor title>
5S18(A) > WOY(A-201)

> <HYBRID receptor filename>
experiments/data/docking/5s18.oedu

> <HYBRID Chemgauss4 score>
-5.521348

> <HYBRID receptor title>
5S18(A) > WOY(A-201)

> <HYBRID receptor filename>
experiments/data/docking/5s18.oedu

> <Dock Type>
Hybrid

$$$$
MOL0092
  -OEChem-07032415493D

 26 26  0     0  0  0  0  0  0999 V2000
   -4.0054   15.0079    0.3515 C   0  0  0  0  0  0  0  0  0  0  0  0
   -2.8513   14.6416   -1.7177 C   0  0  0  0  0  0  0  0  0  0  0  0
   -4.0183   14.7271   -1.0655 C   0  0  0  0  0  0  0  0  0  0  0  0
   -2.8655   15.1854    1.0387 C   0  0  0  0  0  0  0  0  0  0  0  0
   -1.5550   15.0864    0.2982 C   0  0  0  0  0  0  0  0  0  0  0  0
   -0.0546   13.2484   -2.1652 C   0  0  0  0  0  0  0  0  0  0  0  0
   -0.4292   14.6979   -1.8782 C   0  0  0  0  0  0  0  0  0  0  0  0
   -5.3472   14.5461   -1.7287 C   0  0  0  0  0  0  0  0  0  0  0  0
   -1.1150   12.4999   -2.9477 C   0  0  0  0  0  0  0  0  0  0  0  0
   -1.6406   14.8138   -1.0731 N   0  0  0  0  0  0  0  0  0  0  0  0
   -2.7911   15.4525    2.3744 N   0  0  0  0  0  0  0  0  0  0  0  0
   -0.4989   15.2450    0.9119 O   0  0  0  0  0  0  0  0  0  0  0  0
   -6.3543   14.6840   -0.8411 F   0  0  0  0  0  0  0  0  0  0  0  0
   -5.5329   15.4563   -2.7074 F   0  0  0  0  0  0  0  0  0  0  0  0
   -5.4498   13.3195   -2.2819 F   0  0  0  0  0  0  0  0  0  0  0  0
   -0.7303   11.2197   -3.1546 F   0  0  0  0  0  0  0  0  0  0  0  0
   -2.2944   12.4691   -2.2927 F   0  0  0  0  0  0  0  0  0  0  0  0
   -1.3226   13.0633   -4.1568 F   0  0  0  0  0  0  0  0  0  0  0  0
   -4.9640   15.0738    0.8591 H   0  0  0  0  0  0  0  0  0  0  0  0
   -2.8049   14.4328   -2.7814 H   0  0  0  0  0  0  0  0  0  0  0  0
    0.8770   13.2336   -2.7424 H   0  0  0  0  0  0  0  0  0  0  0  0
    0.1397   12.7184   -1.2251 H   0  0  0  0  0  0  0  0  0  0  0  0
   -0.5866   15.2595   -2.8039 H   0  0  0  0  0  0  0  0  0  0  0  0
    0.3737   15.1867   -1.3172 H   0  0  0  0  0  0  0  0  0  0  0  0
   -3.6381   15.5247    2.8949 H   0  0  0  0  0  0  0  0  0  0  0  0
   -1.8924   15.5671    2.7891 H   0  0  0  0  0  0  0  0  0  0  0  0
  1  3  1  0  0  0  0
  1  4  2  0  0  0  0
  2  3  2  0  0  0  0
  2 10  1  0  0  0  0
  3  8  1  0  0  0  0
  4  5  1  0  0  0  0
  4 11  1  0  0  0  0
  5 10  1  0  0  0  0
  5 12  2  0  0  0  0
  6  7  1  0  0  0  0
  6  9  1  0  0  0  0
  7 10  1  0  0  0  0
  8 13  1  0  0  0  0
  8 14  1  0  0  0  0
  8 15  1  0  0  0  0
  9 16  1  0  0  0  0
  9 17  1  0  0  0  0
  9 18  1  0  0  0  0
  1 19  1  0  0  0  0
  2 20  1  0  0  0  0
  6 21  1  0  0  0  0
  6 22  1  0  0  0  0
  7 23  1  0  0  0  0
  7 24  1  0  0  0  0
 11 25  1  0  0  0  0
 11 26  1  0  0  0  0
M  END
> <HYBRID receptor title>
5S18(A) > WOY(A-201)

> <HYBRID receptor filename>
experiments/data/docking/5s18.oedu

> <HYBRID Chemgauss4 score>
-5.500864

> <HYBRID receptor title>
5S18(A) > WOY(A-201)

> <HYBRID receptor filename>
experiments/data/docking/5s18.oedu

> <Dock Type>
Hybrid

$$$$
MOL0278
  -OEChem-07032415493D

 20 20  0     0  0  0  0  0  0999 V2000
   -3.9939   14.9332   -0.5717 C   0  0  0  0  0  0  0  0  0  0  0  0
   -1.6447   14.6923   -0.9833 C   0  0  0  0  0  0  0  0  0  0  0  0
   -2.8835   14.8090   -1.4802 C   0  0  0  0  0  0  0  0  0  0  0  0
   -3.8280   14.9352    0.7582 C   0  0  0  0  0  0  0  0  0  0  0  0
   -2.4320   14.8029    1.3131 C   0  0  0  0  0  0  0  0  0  0  0  0
   -0.0541   14.5592    0.8549 C   0  0  0  0  0  0  0  0  0  0  0  0
   -3.1835   14.8176   -2.9469 C   0  0  0  0  0  0  0  0  0  0  0  0
   -1.3783   14.6850    0.3835 N   0  0  0  0  0  0  0  0  0  0  0  0
   -4.8375   15.0487    1.6691 N   0  0  0  0  0  0  0  0  0  0  0  0
   -2.2843   14.8044    2.5374 O   0  0  0  0  0  0  0  0  0  0  0  0
    0.2873   14.5418    2.0353 O   0  0  0  0  0  0  0  0  0  0  0  0
    0.8888   14.4512   -0.1277 O   0  0  0  0  0  0  0  0  0  0  0  0
   -4.5081   14.9467   -3.1687 F   0  0  0  0  0  0  0  0  0  0  0  0
   -2.5595   15.8406   -3.5664 F   0  0  0  0  0  0  0  0  0  0  0  0
   -2.7764   13.6714   -3.5308 F   0  0  0  0  0  0  0  0  0  0  0  0
   -4.9885   15.0267   -0.9990 H   0  0  0  0  0  0  0  0  0  0  0  0
   -0.8028   14.5985   -1.6597 H   0  0  0  0  0  0  0  0  0  0  0  0
   -5.7728   15.1374    1.3365 H   0  0  0  0  0  0  0  0  0  0  0  0
   -4.6086   15.0393    2.6387 H   0  0  0  0  0  0  0  0  0  0  0  0
    1.7925   14.3663    0.2442 H   0  0  0  0  0  0  0  0  0  0  0  0
  1  3  1  0  0  0  0
  1  4  2  0  0  0  0
  2  3  2  0  0  0  0
  2  8  1  0  0  0  0
  3  7  1  0  0  0  0
  4  5  1  0  0  0  0
  4  9  1  0  0  0  0
  5  8  1  0  0  0  0
  5 10  2  0  0  0  0
  6  8  1  0  0  0  0
  6 11  2  0  0  0  0
  6 12  1  0  0  0  0
  7 13  1  0  0  0  0
  7 14  1  0  0  0  0
  7 15  1  0  0  0  0
  1 16  1  0  0  0  0
  2 17  1  0  0  0  0
  9 18  1  0  0  0  0
  9 19  1  0  0  0  0
 12 20  1  0  0  0  0
M  END
> <HYBRID receptor title>
5S18(A) > WOY(A-201)

> <HYBRID receptor filename>
experiments/data/docking/5s18.oedu

> <HYBRID Chemgauss4 score>
-5.498475

> <HYBRID receptor title>
5S18(A) > WOY(A-201)

> <HYBRID receptor filename>
experiments/data/docking/5s18.oedu

> <Dock Type>
Hybrid

$$$$
MOL0408
  -OEChem-07032415493D

 20 20  0     0  0  0  0  0  0999 V2000
   -3.4450   14.8002   -1.0425 C   0  0  0  0  0  0  0  0  0  0  0  0
   -4.7289   15.2507    0.9437 C   0  0  0  0  0  0  0  0  0  0  0  0
   -2.2820   14.7564   -0.3691 C   0  0  0  0  0  0  0  0  0  0  0  0
   -4.6965   15.0520   -0.3768 C   0  0  0  0  0  0  0  0  0  0  0  0
   -2.3170   14.9797    1.1225 C   0  0  0  0  0  0  0  0  0  0  0  0
   -6.7128   13.4321   -1.1854 C   0  0  0  0  0  0  0  0  0  0  0  0
   -3.5680   15.2151    1.6734 N   0  0  0  0  0  0  0  0  0  0  0  0
   -1.0580   14.5240   -0.9222 N   0  0  0  0  0  0  0  0  0  0  0  0
   -1.2854   14.9505    1.7914 O   0  0  0  0  0  0  0  0  0  0  0  0
   -5.9158   15.4279   -2.6358 O   0  0  0  0  0  0  0  0  0  0  0  0
   -7.1498   15.8910   -0.4869 O   0  0  0  0  0  0  0  0  0  0  0  0
   -7.8947   13.2618   -1.8269 F   0  0  0  0  0  0  0  0  0  0  0  0
   -5.8162   12.6028   -1.7720 F   0  0  0  0  0  0  0  0  0  0  0  0
   -6.8853   13.0032    0.0889 F   0  0  0  0  0  0  0  0  0  0  0  0
   -6.1774   15.1134   -1.2397 S   0  0  0  0  0  0  0  0  0  0  0  0
   -3.4630   14.6455   -2.1171 H   0  0  0  0  0  0  0  0  0  0  0  0
   -5.6326   15.4465    1.5076 H   0  0  0  0  0  0  0  0  0  0  0  0
   -3.6279   15.3700    2.6755 H   0  0  0  0  0  0  0  0  0  0  0  0
   -0.9986   14.3715   -1.9060 H   0  0  0  0  0  0  0  0  0  0  0  0
   -0.2582   14.5134   -0.3272 H   0  0  0  0  0  0  0  0  0  0  0  0
  1  3  2  0  0  0  0
  1  4  1  0  0  0  0
  2  4  2  0  0  0  0
  2  7  1  0  0  0  0
  3  5  1  0  0  0  0
  3  8  1  0  0  0  0
  4 15  1  0  0  0  0
  5  7  1  0  0  0  0
  5  9  2  0  0  0  0
  6 12  1  0  0  0  0
  6 13  1  0  0  0  0
  6 14  1  0  0  0  0
  6 15  1  0  0  0  0
 10 15  2  0  0  0  0
 11 15  2  0  0  0  0
  1 16  1  0  0  0  0
  2 17  1  0  0  0  0
  7 18  1  0  0  0  0
  8 19  1  0  0  0  0
  8 20  1  0  0  0  0
M  END
> <HYBRID receptor title>
5S18(A) > WOY(A-201)

> <HYBRID receptor filename>
experiments/data/docking/5s18.oedu

> <HYBRID Chemgauss4 score>
-5.497272

> <HYBRID receptor title>
5S18(A) > WOY(A-201)

> <HYBRID receptor filename>
experiments/data/docking/5s18.oedu

> <Dock Type>
Hybrid

$$$$
MOL0304
  -OEChem-07032415493D

 30 31  0     0  0  0  0  0  0999 V2000
   -2.1975   14.8324   -1.2374 C   0  0  0  0  0  0  0  0  0  0  0  0
   -3.6058   12.8173   -3.0139 C   0  0  0  0  0  0  0  0  0  0  0  0
   -3.9839   14.9225    0.3635 C   0  0  0  0  0  0  0  0  0  0  0  0
   -3.6833   14.7865   -4.3824 C   0  0  0  0  0  0  0  0  0  0  0  0
   -1.2548   14.7970   -0.2805 C   0  0  0  0  0  0  0  0  0  0  0  0
   -3.6111   14.8971   -0.9239 C   0  0  0  0  0  0  0  0  0  0  0  0
   -3.9485   14.2127   -3.2008 C   0  0  0  0  0  0  0  0  0  0  0  0
   -3.0324   12.0785   -3.9795 C   0  0  0  0  0  0  0  0  0  0  0  0
   -1.6871   14.8256    1.1576 C   0  0  0  0  0  0  0  0  0  0  0  0
   -2.7423   12.7412   -5.3001 C   0  0  0  0  0  0  0  0  0  0  0  0
   -4.5793   14.9326   -2.0633 C   0  0  0  0  0  0  0  0  0  0  0  0
    0.2115   14.7305   -0.5657 C   0  0  0  0  0  0  0  0  0  0  0  0
   -3.0545   14.8877    1.3712 N   0  0  0  0  0  0  0  0  0  0  0  0
   -3.0999   14.0760   -5.3986 N   0  0  0  0  0  0  0  0  0  0  0  0
   -2.6861   10.7650   -3.8671 N   0  0  0  0  0  0  0  0  0  0  0  0
   -0.8628   14.7950    2.0689 O   0  0  0  0  0  0  0  0  0  0  0  0
   -2.2192   12.1174   -6.2216 O   0  0  0  0  0  0  0  0  0  0  0  0
    0.4470   14.7115   -1.8947 F   0  0  0  0  0  0  0  0  0  0  0  0
    0.8597   15.7952   -0.0483 F   0  0  0  0  0  0  0  0  0  0  0  0
    0.7596   13.6173   -0.0343 F   0  0  0  0  0  0  0  0  0  0  0  0
   -1.9167   14.8131   -2.2864 H   0  0  0  0  0  0  0  0  0  0  0  0
   -3.8300   12.3723   -2.0481 H   0  0  0  0  0  0  0  0  0  0  0  0
   -5.0182   14.9707    0.6813 H   0  0  0  0  0  0  0  0  0  0  0  0
   -3.9078   15.8227   -4.6032 H   0  0  0  0  0  0  0  0  0  0  0  0
   -4.7760   15.9631   -2.3548 H   0  0  0  0  0  0  0  0  0  0  0  0
   -5.5066   14.4365   -1.7807 H   0  0  0  0  0  0  0  0  0  0  0  0
   -3.3986   14.9094    2.3267 H   0  0  0  0  0  0  0  0  0  0  0  0
   -2.9192   14.5561   -6.2754 H   0  0  0  0  0  0  0  0  0  0  0  0
   -2.8645   10.2950   -3.0058 H   0  0  0  0  0  0  0  0  0  0  0  0
   -2.2648   10.3125   -4.6492 H   0  0  0  0  0  0  0  0  0  0  0  0
  1  5  2  0  0  0  0
  1  6  1  0  0  0  0
  2  7  1  0  0  0  0
  2  8  2  0  0  0  0
  3  6  2  0  0  0  0
  3 13  1  0  0  0  0
  4  7  2  0  0  0  0
  4 14  1  0  0  0  0
  5  9  1  0  0  0  0
  5 12  1  0  0  0  0
  6 11  1  0  0  0  0
  7 11  1  0  0  0  0
  8 10  1  0  0  0  0
  8 15  1  0  0  0  0
  9 13  1  0  0  0  0
  9 16  2  0  0  0  0
 10 14  1  0  0  0  0
 10 17  2  0  0  0  0
 12 18  1  0  0  0  0
 12 19  1  0  0  0  0
 12 20  1  0  0  0  0
  1 21  1  0  0  0  0
  2 22  1  0  0  0  0
  3 23  1  0  0  0  0
  4 24  1  0  0  0  0
 11 25  1  0  0  0  0
 11 26  1  0  0  0  0
 13 27  1  0  0  0  0
 14 28  1  0  0  0  0
 15 29  1  0  0  0  0
 15 30  1  0  0  0  0
M  END
> <HYBRID receptor title>
5S18(A) > WOY(A-201)

> <HYBRID receptor filename>
experiments/data/docking/5s18.oedu

> <HYBRID Chemgauss4 score>
-5.486817

> <HYBRID receptor title>
5S18(A) > WOY(A-201)

> <HYBRID receptor filename>
experiments/data/docking/5s18.oedu

> <Dock Type>
Hybrid

$$$$
MOL0112
  -OEChem-07032415493D

 28 28  0     1  0  0  0  0  0999 V2000
   -4.5252   14.0323   -1.2785 C   0  0  0  0  0  0  0  0  0  0  0  0
   -3.2712   14.9868    0.5739 C   0  0  0  0  0  0  0  0  0  0  0  0
   -5.5473   13.7858   -0.4512 C   0  0  0  0  0  0  0  0  0  0  0  0
   -3.3592   14.6560   -0.7181 C   0  0  0  0  0  0  0  0  0  0  0  0
   -5.5185   14.1281    0.9966 C   0  0  0  0  0  0  0  0  0  0  0  0
   -1.9240   13.1202   -3.2082 C   0  0  0  0  0  0  0  0  0  0  0  0
   -2.4176   14.5402   -2.9900 C   0  0  0  0  0  0  0  0  0  0  0  0
   -1.2018   15.7401   -1.2004 C   0  0  0  0  0  0  0  0  0  0  0  0
   -0.1491   14.8825   -0.5508 C   0  0  0  0  0  0  0  0  0  0  0  0
   -4.3318   14.7275    1.4158 N   0  0  0  0  0  0  0  0  0  0  0  0
   -6.7077   13.1952   -0.8756 N   0  0  0  0  0  0  0  0  0  0  0  0
   -2.3239   14.8996   -1.5847 N   0  0  3  0  0  0  0  0  0  0  0  0
   -6.4641   13.8970    1.7452 O   0  0  0  0  0  0  0  0  0  0  0  0
    0.9236   15.6156   -0.1833 F   0  0  0  0  0  0  0  0  0  0  0  0
   -0.6294   14.2621    0.5480 F   0  0  0  0  0  0  0  0  0  0  0  0
    0.2798   13.9278   -1.4062 F   0  0  0  0  0  0  0  0  0  0  0  0
   -4.5607   13.7772   -2.3320 H   0  0  0  0  0  0  0  0  0  0  0  0
   -2.4080   15.4571    1.0280 H   0  0  0  0  0  0  0  0  0  0  0  0
   -2.5224   12.4186   -2.6185 H   0  0  0  0  0  0  0  0  0  0  0  0
   -0.8782   13.0114   -2.9017 H   0  0  0  0  0  0  0  0  0  0  0  0
   -2.0045   12.8305   -4.2614 H   0  0  0  0  0  0  0  0  0  0  0  0
   -1.8145   15.2356   -3.5827 H   0  0  0  0  0  0  0  0  0  0  0  0
   -3.4565   14.6282   -3.3242 H   0  0  0  0  0  0  0  0  0  0  0  0
   -0.8106   16.2297   -2.0964 H   0  0  0  0  0  0  0  0  0  0  0  0
   -1.5625   16.5079   -0.5098 H   0  0  0  0  0  0  0  0  0  0  0  0
   -4.2437   14.9870    2.3939 H   0  0  0  0  0  0  0  0  0  0  0  0
   -6.7862   12.9434   -1.8343 H   0  0  0  0  0  0  0  0  0  0  0  0
   -7.4292   13.0396   -0.2101 H   0  0  0  0  0  0  0  0  0  0  0  0
  1  3  2  0  0  0  0
  1  4  1  0  0  0  0
  2  4  2  0  0  0  0
  2 10  1  0  0  0  0
  3  5  1  0  0  0  0
  3 11  1  0  0  0  0
  4 12  1  0  0  0  0
  5 10  1  0  0  0  0
  5 13  2  0  0  0  0
  6  7  1  0  0  0  0
  7 12  1  0  0  0  0
  8  9  1  0  0  0  0
  8 12  1  0  0  0  0
  9 14  1  0  0  0  0
  9 15  1  0  0  0  0
  9 16  1  0  0  0  0
  1 17  1  0  0  0  0
  2 18  1  0  0  0  0
  6 19  1  0  0  0  0
  6 20  1  0  0  0  0
  6 21  1  0  0  0  0
  7 22  1  0  0  0  0
  7 23  1  0  0  0  0
  8 24  1  0  0  0  0
  8 25  1  0  0  0  0
 10 26  1  0  0  0  0
 11 27  1  0  0  0  0
 11 28  1  0  0  0  0
M  END
> <HYBRID receptor title>
5S18(A) > WOY(A-201)

> <HYBRID receptor filename>
experiments/data/docking/5s18.oedu

> <HYBRID Chemgauss4 score>
-5.453255

> <HYBRID receptor title>
5S18(A) > WOY(A-201)

> <HYBRID receptor filename>
experiments/data/docking/5s18.oedu

> <Dock Type>
Hybrid

$$$$
MOL0390
  -OEChem-07032415493D

 27 28  0     0  0  0  0  0  0999 V2000
   -0.1883   14.1876   -0.6636 C   0  0  0  0  0  0  0  0  0  0  0  0
   -1.6846   14.3300   -2.2681 C   0  0  0  0  0  0  0  0  0  0  0  0
   -0.4917   13.7236   -1.9576 C   0  0  0  0  0  0  0  0  0  0  0  0
   -5.4162   14.7147   -0.8019 C   0  0  0  0  0  0  0  0  0  0  0  0
   -4.1920   15.2994    1.1770 C   0  0  0  0  0  0  0  0  0  0  0  0
   -4.2695   15.3258   -0.1605 C   0  0  0  0  0  0  0  0  0  0  0  0
   -6.4032   14.1239   -0.1065 C   0  0  0  0  0  0  0  0  0  0  0  0
   -6.2979   14.1044    1.3955 C   0  0  0  0  0  0  0  0  0  0  0  0
   -3.2316   15.9549   -1.0344 C   0  0  0  0  0  0  0  0  0  0  0  0
    0.2906   12.7977   -2.7918 C   0  0  0  0  0  0  0  0  0  0  0  0
   -1.1132   15.0240   -0.1854 N   0  0  0  0  0  0  0  0  0  0  0  0
   -2.0102   15.0906   -1.1838 N   0  0  0  0  0  0  0  0  0  0  0  0
   -5.1722   14.7090    1.9308 N   0  0  0  0  0  0  0  0  0  0  0  0
   -7.5055   13.5328   -0.6484 N   0  0  0  0  0  0  0  0  0  0  0  0
   -7.1692   13.5788    2.0858 O   0  0  0  0  0  0  0  0  0  0  0  0
    1.4518   12.3494   -2.2102 F   0  0  0  0  0  0  0  0  0  0  0  0
    0.6887   13.3444   -3.9864 F   0  0  0  0  0  0  0  0  0  0  0  0
   -0.3788   11.6493   -3.1400 F   0  0  0  0  0  0  0  0  0  0  0  0
    0.6683   13.9530   -0.0473 H   0  0  0  0  0  0  0  0  0  0  0  0
   -2.3131   14.2867   -3.1473 H   0  0  0  0  0  0  0  0  0  0  0  0
   -5.4584   14.7474   -1.8873 H   0  0  0  0  0  0  0  0  0  0  0  0
   -3.3696   15.7325    1.7329 H   0  0  0  0  0  0  0  0  0  0  0  0
   -2.9550   16.9287   -0.6175 H   0  0  0  0  0  0  0  0  0  0  0  0
   -3.6682   16.1621   -2.0166 H   0  0  0  0  0  0  0  0  0  0  0  0
   -5.0674   14.7150    2.9412 H   0  0  0  0  0  0  0  0  0  0  0  0
   -7.6068   13.5275   -1.6405 H   0  0  0  0  0  0  0  0  0  0  0  0
   -8.1780   13.1230   -0.0372 H   0  0  0  0  0  0  0  0  0  0  0  0
  1  3  1  0  0  0  0
  1 11  2  0  0  0  0
  2  3  2  0  0  0  0
  2 12  1  0  0  0  0
  3 10  1  0  0  0  0
  4  6  1  0  0  0  0
  4  7  2  0  0  0  0
  5  6  2  0  0  0  0
  5 13  1  0  0  0  0
  6  9  1  0  0  0  0
  7  8  1  0  0  0  0
  7 14  1  0  0  0  0
  8 13  1  0  0  0  0
  8 15  2  0  0  0  0
  9 12  1  0  0  0  0
 10 16  1  0  0  0  0
 10 17  1  0  0  0  0
 10 18  1  0  0  0  0
 11 12  1  0  0  0  0
  1 19  1  0  0  0  0
  2 20  1  0  0  0  0
  4 21  1  0  0  0  0
  5 22  1  0  0  0  0
  9 23  1  0  0  0  0
  9 24  1  0  0  0  0
 13 25  1  0  0  0  0
 14 26  1  0  0  0  0
 14 27  1  0  0  0  0
M  END
> <HYBRID receptor title>
5S18(A) > WOY(A-201)

> <HYBRID receptor filename>
experiments/data/docking/5s18.oedu

> <HYBRID Chemgauss4 score>
-5.449733

> <HYBRID receptor title>
5S18(A) > WOY(A-201)

> <HYBRID receptor filename>
experiments/data/docking/5s18.oedu

> <Dock Type>
Hybrid

$$$$
MOL0183
  -OEChem-07032415493D

 20 20  0     0  0  0  0  0  0999 V2000
   -2.1601   14.6449   -2.0615 C   0  0  0  0  0  0  0  0  0  0  0  0
   -1.7926   15.0538    0.2915 C   0  0  0  0  0  0  0  0  0  0  0  0
    0.0809   14.5872   -1.1601 C   0  0  0  0  0  0  0  0  0  0  0  0
   -2.6620   14.9369   -0.7932 C   0  0  0  0  0  0  0  0  0  0  0  0
   -0.7884   14.4703   -2.2448 C   0  0  0  0  0  0  0  0  0  0  0  0
   -0.4210   14.8791    0.1081 C   0  0  0  0  0  0  0  0  0  0  0  0
   -4.1284   15.1249   -0.5967 C   0  0  0  0  0  0  0  0  0  0  0  0
   -0.2511   14.1580   -3.6006 C   0  0  0  0  0  0  0  0  0  0  0  0
    0.4579   14.9961    1.2049 N   0  0  0  0  0  0  0  0  0  0  0  0
   -4.8591   14.9832   -1.7418 F   0  0  0  0  0  0  0  0  0  0  0  0
   -4.4389   16.3641   -0.1158 F   0  0  0  0  0  0  0  0  0  0  0  0
   -4.6766   14.2405    0.2883 F   0  0  0  0  0  0  0  0  0  0  0  0
   -1.2126   14.0726   -4.5668 F   0  0  0  0  0  0  0  0  0  0  0  0
    0.4138   12.9667   -3.6401 F   0  0  0  0  0  0  0  0  0  0  0  0
    0.6364   15.0885   -4.0617 F   0  0  0  0  0  0  0  0  0  0  0  0
   -2.8379   14.5549   -2.9070 H   0  0  0  0  0  0  0  0  0  0  0  0
   -2.1866   15.2821    1.2796 H   0  0  0  0  0  0  0  0  0  0  0  0
    1.1503   14.4511   -1.3051 H   0  0  0  0  0  0  0  0  0  0  0  0
    0.0909   15.2566    2.0977 H   0  0  0  0  0  0  0  0  0  0  0  0
    1.4428   14.9211    1.0505 H   0  0  0  0  0  0  0  0  0  0  0  0
  1  4  1  0  0  0  0
  1  5  2  0  0  0  0
  2  4  2  0  0  0  0
  2  6  1  0  0  0  0
  3  5  1  0  0  0  0
  3  6  2  0  0  0  0
  4  7  1  0  0  0  0
  5  8  1  0  0  0  0
  6  9  1  0  0  0  0
  7 10  1  0  0  0  0
  7 11  1  0  0  0  0
  7 12  1  0  0  0  0
  8 13  1  0  0  0  0
  8 14  1  0  0  0  0
  8 15  1  0  0  0  0
  1 16  1  0  0  0  0
  2 17  1  0  0  0  0
  3 18  1  0  0  0  0
  9 19  1  0  0  0  0
  9 20  1  0  0  0  0
M  END
> <HYBRID receptor title>
5S18(A) > WOY(A-201)

> <HYBRID receptor filename>
experiments/data/docking/5s18.oedu

> <HYBRID Chemgauss4 score>
-5.374978

> <HYBRID receptor title>
5S18(A) > WOY(A-201)

> <HYBRID receptor filename>
experiments/data/docking/5s18.oedu

> <Dock Type>
Hybrid

$$$$
MOL0089
  -OEChem-07032415493D

 23 23  0     0  0  0  0  0  0999 V2000
   -2.2554   14.9693   -0.0140 C   0  0  0  0  0  0  0  0  0  0  0  0
   -3.8782   14.1545   -1.5795 C   0  0  0  0  0  0  0  0  0  0  0  0
   -2.6008   14.4666   -1.3236 C   0  0  0  0  0  0  0  0  0  0  0  0
   -3.1690   15.1359    0.9558 C   0  0  0  0  0  0  0  0  0  0  0  0
   -4.6058   14.7836    0.6604 C   0  0  0  0  0  0  0  0  0  0  0  0
   -7.0628   15.1761   -1.2670 C   0  0  0  0  0  0  0  0  0  0  0  0
   -6.2286   13.9325   -1.0121 C   0  0  0  0  0  0  0  0  0  0  0  0
   -1.5011   14.3226   -2.3279 C   0  0  0  0  0  0  0  0  0  0  0  0
   -4.8700   14.3005   -0.6277 N   0  0  0  0  0  0  0  0  0  0  0  0
   -2.9028   15.6054    2.2086 N   0  0  0  0  0  0  0  0  0  0  0  0
   -5.4582   14.9308    1.5371 O   0  0  0  0  0  0  0  0  0  0  0  0
   -0.3168   14.7076   -1.8079 F   0  0  0  0  0  0  0  0  0  0  0  0
   -1.3758   13.0424   -2.7351 F   0  0  0  0  0  0  0  0  0  0  0  0
   -1.7387   15.0806   -3.4189 F   0  0  0  0  0  0  0  0  0  0  0  0
   -1.2130   15.2147    0.1707 H   0  0  0  0  0  0  0  0  0  0  0  0
   -4.1909   13.7733   -2.5459 H   0  0  0  0  0  0  0  0  0  0  0  0
   -6.6138   15.7735   -2.0668 H   0  0  0  0  0  0  0  0  0  0  0  0
   -7.1245   15.8039   -0.3717 H   0  0  0  0  0  0  0  0  0  0  0  0
   -8.0814   14.9139   -1.5727 H   0  0  0  0  0  0  0  0  0  0  0  0
   -6.6838   13.3406   -0.2115 H   0  0  0  0  0  0  0  0  0  0  0  0
   -6.2009   13.3120   -1.9138 H   0  0  0  0  0  0  0  0  0  0  0  0
   -1.9637   15.8480    2.4382 H   0  0  0  0  0  0  0  0  0  0  0  0
   -3.6553   15.6917    2.8561 H   0  0  0  0  0  0  0  0  0  0  0  0
  1  3  1  0  0  0  0
  1  4  2  0  0  0  0
  2  3  2  0  0  0  0
  2  9  1  0  0  0  0
  3  8  1  0  0  0  0
  4  5  1  0  0  0  0
  4 10  1  0  0  0  0
  5  9  1  0  0  0  0
  5 11  2  0  0  0  0
  6  7  1  0  0  0  0
  7  9  1  0  0  0  0
  8 12  1  0  0  0  0
  8 13  1  0  0  0  0
  8 14  1  0  0  0  0
  1 15  1  0  0  0  0
  2 16  1  0  0  0  0
  6 17  1  0  0  0  0
  6 18  1  0  0  0  0
  6 19  1  0  0  0  0
  7 20  1  0  0  0  0
  7 21  1  0  0  0  0
 10 22  1  0  0  0  0
 10 23  1  0  0  0  0
M  END
> <HYBRID receptor title>
5S18(A) > WOY(A-201)

> <HYBRID receptor filename>
experiments/data/docking/5s18.oedu

> <HYBRID Chemgauss4 score>
-5.368772

> <HYBRID receptor title>
5S18(A) > WOY(A-201)

> <HYBRID receptor filename>
experiments/data/docking/5s18.oedu

> <Dock Type>
Hybrid

$$$$
MOL0340
  -OEChem-07032415493D

 26 26  0     0  0  0  0  0  0999 V2000
   -3.8926   14.7856    0.4329 C   0  0  0  0  0  0  0  0  0  0  0  0
   -3.1573   14.4995   -1.8310 C   0  0  0  0  0  0  0  0  0  0  0  0
   -4.1793   14.6158   -0.9728 C   0  0  0  0  0  0  0  0  0  0  0  0
   -2.6384   14.8301    0.9104 C   0  0  0  0  0  0  0  0  0  0  0  0
   -1.4923   14.6972   -0.0615 C   0  0  0  0  0  0  0  0  0  0  0  0
    0.8909   15.6051   -3.8760 C   0  0  0  0  0  0  0  0  0  0  0  0
   -0.1729   15.7359   -2.7954 C   0  0  0  0  0  0  0  0  0  0  0  0
   -0.8056   14.3992   -2.4268 C   0  0  0  0  0  0  0  0  0  0  0  0
   -5.6150   14.5792   -1.3924 C   0  0  0  0  0  0  0  0  0  0  0  0
   -1.8416   14.5371   -1.4086 N   0  0  0  0  0  0  0  0  0  0  0  0
   -2.3069   14.9882    2.2242 N   0  0  0  0  0  0  0  0  0  0  0  0
   -0.3349   14.7344    0.3579 O   0  0  0  0  0  0  0  0  0  0  0  0
   -6.4341   14.7184   -0.3291 F   0  0  0  0  0  0  0  0  0  0  0  0
   -5.8955   15.5724   -2.2616 F   0  0  0  0  0  0  0  0  0  0  0  0
   -5.9145   13.4087   -1.9936 F   0  0  0  0  0  0  0  0  0  0  0  0
   -4.7375   14.8789    1.1100 H   0  0  0  0  0  0  0  0  0  0  0  0
   -3.3173   14.3702   -2.8963 H   0  0  0  0  0  0  0  0  0  0  0  0
    0.4628   15.1437   -4.7716 H   0  0  0  0  0  0  0  0  0  0  0  0
    1.7210   14.9782   -3.5352 H   0  0  0  0  0  0  0  0  0  0  0  0
    1.2924   16.5824   -4.1614 H   0  0  0  0  0  0  0  0  0  0  0  0
    0.2718   16.1992   -1.9068 H   0  0  0  0  0  0  0  0  0  0  0  0
   -0.9573   16.4120   -3.1554 H   0  0  0  0  0  0  0  0  0  0  0  0
   -0.0570   13.6951   -2.0504 H   0  0  0  0  0  0  0  0  0  0  0  0
   -1.2800   13.9543   -3.3073 H   0  0  0  0  0  0  0  0  0  0  0  0
   -3.0395   15.0791    2.8940 H   0  0  0  0  0  0  0  0  0  0  0  0
   -1.3426   15.0079    2.4743 H   0  0  0  0  0  0  0  0  0  0  0  0
  1  3  1  0  0  0  0
  1  4  2  0  0  0  0
  2  3  2  0  0  0  0
  2 10  1  0  0  0  0
  3  9  1  0  0  0  0
  4  5  1  0  0  0  0
  4 11  1  0  0  0  0
  5 10  1  0  0  0  0
  5 12  2  0  0  0  0
  6  7  1  0  0  0  0
  7  8  1  0  0  0  0
  8 10  1  0  0  0  0
  9 13  1  0  0  0  0
  9 14  1  0  0  0  0
  9 15  1  0  0  0  0
  1 16  1  0  0  0  0
  2 17  1  0  0  0  0
  6 18  1  0  0  0  0
  6 19  1  0  0  0  0
  6 20  1  0  0  0  0
  7 21  1  0  0  0  0
  7 22  1  0  0  0  0
  8 23  1  0  0  0  0
  8 24  1  0  0  0  0
 11 25  1  0  0  0  0
 11 26  1  0  0  0  0
M  END
> <HYBRID receptor title>
5S18(A) > WOY(A-201)

> <HYBRID receptor filename>
experiments/data/docking/5s18.oedu

> <HYBRID Chemgauss4 score>
-5.361424

> <HYBRID receptor title>
5S18(A) > WOY(A-201)

> <HYBRID receptor filename>
experiments/data/docking/5s18.oedu

> <Dock Type>
Hybrid

$$$$
MOL0361
  -OEChem-07032415493D

 17 17  0     0  0  0  0  0  0999 V2000
   -1.0814   14.9509   -0.7767 C   0  0  0  0  0  0  0  0  0  0  0  0
   -0.3868   14.7970    0.3561 C   0  0  0  0  0  0  0  0  0  0  0  0
   -2.5352   15.0473   -0.8026 C   0  0  0  0  0  0  0  0  0  0  0  0
   -3.1920   14.9758    0.3774 C   0  0  0  0  0  0  0  0  0  0  0  0
   -1.1136   14.7198    1.6468 C   0  0  0  0  0  0  0  0  0  0  0  0
   -4.6821   15.0551    0.5504 C   0  0  0  0  0  0  0  0  0  0  0  0
   -2.4887   14.8166    1.5583 N   0  0  0  0  0  0  0  0  0  0  0  0
   -3.1140   15.2033   -2.0324 N   0  0  0  0  0  0  0  0  0  0  0  0
   -0.4978   14.5786    2.7001 O   0  0  0  0  0  0  0  0  0  0  0  0
   -5.2943   15.2094   -0.6399 F   0  0  0  0  0  0  0  0  0  0  0  0
   -5.1617   13.9345    1.1240 F   0  0  0  0  0  0  0  0  0  0  0  0
   -5.0184   16.1002    1.3315 F   0  0  0  0  0  0  0  0  0  0  0  0
   -0.5464   15.0072   -1.7207 H   0  0  0  0  0  0  0  0  0  0  0  0
    0.6940   14.7267    0.3629 H   0  0  0  0  0  0  0  0  0  0  0  0
   -3.0257   14.7682    2.4199 H   0  0  0  0  0  0  0  0  0  0  0  0
   -2.5236   15.2421   -2.8322 H   0  0  0  0  0  0  0  0  0  0  0  0
   -4.1048   15.2722   -2.0841 H   0  0  0  0  0  0  0  0  0  0  0  0
  1  2  2  0  0  0  0
  1  3  1  0  0  0  0
  2  5  1  0  0  0  0
  3  4  2  0  0  0  0
  3  8  1  0  0  0  0
  4  6  1  0  0  0  0
  4  7  1  0  0  0  0
  5  7  1  0  0  0  0
  5  9  2  0  0  0  0
  6 10  1  0  0  0  0
  6 11  1  0  0  0  0
  6 12  1  0  0  0  0
  1 13  1  0  0  0  0
  2 14  1  0  0  0  0
  7 15  1  0  0  0  0
  8 16  1  0  0  0  0
  8 17  1  0  0  0  0
M  END
> <HYBRID receptor title>
5S18(A) > WOY(A-201)

> <HYBRID receptor filename>
experiments/data/docking/5s18.oedu

> <HYBRID Chemgauss4 score>
-5.342757

> <HYBRID receptor title>
5S18(A) > WOY(A-201)

> <HYBRID receptor filename>
experiments/data/docking/5s18.oedu

> <Dock Type>
Hybrid

$$$$
MOL0027
  -OEChem-07032415493D

 24 25  0     0  0  0  0  0  0999 V2000
   -2.8838   14.4229   -1.1595 C   0  0  0  0  0  0  0  0  0  0  0  0
   -4.5878   14.3321    0.5272 C   0  0  0  0  0  0  0  0  0  0  0  0
   -4.2628   14.2123   -0.7673 C   0  0  0  0  0  0  0  0  0  0  0  0
   -1.9204   14.7329   -0.2748 C   0  0  0  0  0  0  0  0  0  0  0  0
   -2.3055   14.8631    1.1751 C   0  0  0  0  0  0  0  0  0  0  0  0
   -5.9347   12.5535   -1.7283 C   0  0  0  0  0  0  0  0  0  0  0  0
   -4.8466   12.7206   -2.7444 C   0  0  0  0  0  0  0  0  0  0  0  0
   -5.2170   13.8764   -1.8462 C   0  0  0  0  0  0  0  0  0  0  0  0
   -5.9577   15.0353   -2.4464 C   0  0  0  0  0  0  0  0  0  0  0  0
   -3.6422   14.6468    1.4677 N   0  0  0  0  0  0  0  0  0  0  0  0
   -0.6082   14.9428   -0.5784 N   0  0  0  0  0  0  0  0  0  0  0  0
   -1.4687   15.1452    2.0309 O   0  0  0  0  0  0  0  0  0  0  0  0
   -5.1037   15.9286   -2.9920 F   0  0  0  0  0  0  0  0  0  0  0  0
   -6.6896   15.6810   -1.5124 F   0  0  0  0  0  0  0  0  0  0  0  0
   -6.8000   14.6230   -3.4187 F   0  0  0  0  0  0  0  0  0  0  0  0
   -2.6390   14.3216   -2.2136 H   0  0  0  0  0  0  0  0  0  0  0  0
   -5.5943   14.1912    0.9017 H   0  0  0  0  0  0  0  0  0  0  0  0
   -6.9547   12.4885   -2.0899 H   0  0  0  0  0  0  0  0  0  0  0  0
   -5.7336   11.9110   -0.8786 H   0  0  0  0  0  0  0  0  0  0  0  0
   -3.9157   12.1911   -2.5757 H   0  0  0  0  0  0  0  0  0  0  0  0
   -5.1360   12.7682   -3.7881 H   0  0  0  0  0  0  0  0  0  0  0  0
   -3.9490   14.7239    2.4330 H   0  0  0  0  0  0  0  0  0  0  0  0
   -0.3187   14.8647   -1.5296 H   0  0  0  0  0  0  0  0  0  0  0  0
    0.0235   15.1682    0.1591 H   0  0  0  0  0  0  0  0  0  0  0  0
  1  3  1  0  0  0  0
  1  4  2  0  0  0  0
  2  3  2  0  0  0  0
  2 10  1  0  0  0  0
  3  8  1  0  0  0  0
  4  5  1  0  0  0  0
  4 11  1  0  0  0  0
  5 10  1  0  0  0  0
  5 12  2  0  0  0  0
  6  7  1  0  0  0  0
  6  8  1  0  0  0  0
  7  8  1  0  0  0  0
  8  9  1  0  0  0  0
  9 13  1  0  0  0  0
  9 14  1  0  0  0  0
  9 15  1  0  0  0  0
  1 16  1  0  0  0  0
  2 17  1  0  0  0  0
  6 18  1  0  0  0  0
  6 19  1  0  0  0  0
  7 20  1  0  0  0  0
  7 21  1  0  0  0  0
 10 22  1  0  0  0  0
 11 23  1  0  0  0  0
 11 24  1  0  0  0  0
M  END
> <HYBRID receptor title>
5S18(A) > WOY(A-201)

> <HYBRID receptor filename>
experiments/data/docking/5s18.oedu

> <HYBRID Chemgauss4 score>
-5.319694

> <HYBRID receptor title>
5S18(A) > WOY(A-201)

> <HYBRID receptor filename>
experiments/data/docking/5s18.oedu

> <Dock Type>
Hybrid

$$$$
MOL0266
  -OEChem-07032415493D

 30 31  0     0  0  0  0  0  0999 V2000
   -2.1118   12.6405   -4.0813 C   0  0  0  0  0  0  0  0  0  0  0  0
   -2.4272   12.2356   -2.7842 C   0  0  0  0  0  0  0  0  0  0  0  0
   -1.1744   13.6527   -4.2867 C   0  0  0  0  0  0  0  0  0  0  0  0
   -1.8052   12.8424   -1.6930 C   0  0  0  0  0  0  0  0  0  0  0  0
   -0.5524   14.2595   -3.1955 C   0  0  0  0  0  0  0  0  0  0  0  0
   -0.8677   13.8546   -1.8985 C   0  0  0  0  0  0  0  0  0  0  0  0
   -3.3874   15.4463   -0.7887 C   0  0  0  0  0  0  0  0  0  0  0  0
   -2.6667   14.9678    1.4492 C   0  0  0  0  0  0  0  0  0  0  0  0
   -2.3419   15.3648    0.2112 C   0  0  0  0  0  0  0  0  0  0  0  0
   -4.6685   15.1395   -0.5212 C   0  0  0  0  0  0  0  0  0  0  0  0
   -5.0135   14.6953    0.8756 C   0  0  0  0  0  0  0  0  0  0  0  0
   -0.1947   14.5113   -0.7183 C   0  0  0  0  0  0  0  0  0  0  0  0
   -0.9511   15.7309   -0.1990 C   0  0  0  0  0  0  0  0  0  0  0  0
   -3.9584   14.6436    1.7719 N   0  0  0  0  0  0  0  0  0  0  0  0
   -5.6963   15.1954   -1.4148 N   0  0  0  0  0  0  0  0  0  0  0  0
   -6.1678   14.4012    1.1809 O   0  0  0  0  0  0  0  0  0  0  0  0
   -2.5961   12.1682   -4.9309 H   0  0  0  0  0  0  0  0  0  0  0  0
   -3.1568   11.4472   -2.6241 H   0  0  0  0  0  0  0  0  0  0  0  0
   -0.9289   13.9683   -5.2965 H   0  0  0  0  0  0  0  0  0  0  0  0
   -2.0575   12.5203   -0.6861 H   0  0  0  0  0  0  0  0  0  0  0  0
    0.1774   15.0466   -3.3656 H   0  0  0  0  0  0  0  0  0  0  0  0
   -3.1015   15.7702   -1.7859 H   0  0  0  0  0  0  0  0  0  0  0  0
   -1.9463   14.8802    2.2530 H   0  0  0  0  0  0  0  0  0  0  0  0
   -0.1077   13.7706    0.0869 H   0  0  0  0  0  0  0  0  0  0  0  0
    0.8337   14.7879   -0.9852 H   0  0  0  0  0  0  0  0  0  0  0  0
   -0.4465   16.1916    0.6560 H   0  0  0  0  0  0  0  0  0  0  0  0
   -1.0344   16.4759   -0.9964 H   0  0  0  0  0  0  0  0  0  0  0  0
   -4.1537   14.3482    2.7240 H   0  0  0  0  0  0  0  0  0  0  0  0
   -5.5028   15.4853   -2.3492 H   0  0  0  0  0  0  0  0  0  0  0  0
   -6.6112   14.9447   -1.1083 H   0  0  0  0  0  0  0  0  0  0  0  0
  1  2  1  0  0  0  0
  1  3  2  0  0  0  0
  2  4  2  0  0  0  0
  3  5  1  0  0  0  0
  4  6  1  0  0  0  0
  5  6  2  0  0  0  0
  6 12  1  0  0  0  0
  7  9  1  0  0  0  0
  7 10  2  0  0  0  0
  8  9  2  0  0  0  0
  8 14  1  0  0  0  0
  9 13  1  0  0  0  0
 10 11  1  0  0  0  0
 10 15  1  0  0  0  0
 11 14  1  0  0  0  0
 11 16  2  0  0  0  0
 12 13  1  0  0  0  0
  1 17  1  0  0  0  0
  2 18  1  0  0  0  0
  3 19  1  0  0  0  0
  4 20  1  0  0  0  0
  5 21  1  0  0  0  0
  7 22  1  0  0  0  0
  8 23  1  0  0  0  0
 12 24  1  0  0  0  0
 12 25  1  0  0  0  0
 13 26  1  0  0  0  0
 13 27  1  0  0  0  0
 14 28  1  0  0  0  0
 15 29  1  0  0  0  0
 15 30  1  0  0  0  0
M  END
> <HYBRID receptor title>
5S18(A) > WOY(A-201)

> <HYBRID receptor filename>
experiments/data/docking/5s18.oedu

> <HYBRID Chemgauss4 score>
-5.292295

> <HYBRID receptor title>
5S18(A) > WOY(A-201)

> <HYBRID receptor filename>
experiments/data/docking/5s18.oedu

> <Dock Type>
Hybrid

$$$$
MOL0333
  -OEChem-07032415493D

 25 25  0     0  0  0  0  0  0999 V2000
   -1.1839   14.5001   -0.8811 C   0  0  0  0  0  0  0  0  0  0  0  0
   -2.6172   14.3075   -1.0295 C   0  0  0  0  0  0  0  0  0  0  0  0
   -0.6022   14.8130    0.2862 C   0  0  0  0  0  0  0  0  0  0  0  0
   -3.4287   14.4446    0.0450 C   0  0  0  0  0  0  0  0  0  0  0  0
   -1.4915   14.9660    1.4796 C   0  0  0  0  0  0  0  0  0  0  0  0
   -5.6297   14.4355    1.1634 C   0  0  0  0  0  0  0  0  0  0  0  0
   -3.0581   13.9611   -2.4254 C   0  0  0  0  0  0  0  0  0  0  0  0
   -7.0619   14.2144    0.7567 C   0  0  0  0  0  0  0  0  0  0  0  0
   -2.8407   14.7677    1.2573 N   0  0  0  0  0  0  0  0  0  0  0  0
    0.7326   15.0044    0.4824 N   0  0  0  0  0  0  0  0  0  0  0  0
   -4.7883   14.2846    0.0084 N   0  0  0  0  0  0  0  0  0  0  0  0
   -1.0295   15.2514    2.5830 O   0  0  0  0  0  0  0  0  0  0  0  0
   -2.0013   13.9027   -3.2580 F   0  0  0  0  0  0  0  0  0  0  0  0
   -3.6779   12.7660   -2.4510 F   0  0  0  0  0  0  0  0  0  0  0  0
   -3.9140   14.8868   -2.8984 F   0  0  0  0  0  0  0  0  0  0  0  0
   -7.8962   14.3345    1.8116 F   0  0  0  0  0  0  0  0  0  0  0  0
   -7.4478   15.1004   -0.1862 F   0  0  0  0  0  0  0  0  0  0  0  0
   -7.2239   12.9739    0.2446 F   0  0  0  0  0  0  0  0  0  0  0  0
   -0.5703   14.3805   -1.7707 H   0  0  0  0  0  0  0  0  0  0  0  0
   -5.3195   13.7072    1.9177 H   0  0  0  0  0  0  0  0  0  0  0  0
   -5.4883   15.4419    1.5680 H   0  0  0  0  0  0  0  0  0  0  0  0
   -3.4592   14.8681    2.0572 H   0  0  0  0  0  0  0  0  0  0  0  0
    1.3497   14.9088   -0.2955 H   0  0  0  0  0  0  0  0  0  0  0  0
    1.0540   15.2347    1.3978 H   0  0  0  0  0  0  0  0  0  0  0  0
   -5.2053   14.0531   -0.8745 H   0  0  0  0  0  0  0  0  0  0  0  0
  1  2  1  0  0  0  0
  1  3  2  0  0  0  0
  2  4  2  0  0  0  0
  2  7  1  0  0  0  0
  3  5  1  0  0  0  0
  3 10  1  0  0  0  0
  4  9  1  0  0  0  0
  4 11  1  0  0  0  0
  5  9  1  0  0  0  0
  5 12  2  0  0  0  0
  6  8  1  0  0  0  0
  6 11  1  0  0  0  0
  7 13  1  0  0  0  0
  7 14  1  0  0  0  0
  7 15  1  0  0  0  0
  8 16  1  0  0  0  0
  8 17  1  0  0  0  0
  8 18  1  0  0  0  0
  1 19  1  0  0  0  0
  6 20  1  0  0  0  0
  6 21  1  0  0  0  0
  9 22  1  0  0  0  0
 10 23  1  0  0  0  0
 10 24  1  0  0  0  0
 11 25  1  0  0  0  0
M  END
> <HYBRID receptor title>
5S18(A) > WOY(A-201)

> <HYBRID receptor filename>
experiments/data/docking/5s18.oedu

> <HYBRID Chemgauss4 score>
-5.272733

> <HYBRID receptor title>
5S18(A) > WOY(A-201)

> <HYBRID receptor filename>
experiments/data/docking/5s18.oedu

> <Dock Type>
Hybrid

$$$$
MOL0300
  -OEChem-07032415493D

 21 21  0     0  0  0  0  0  0999 V2000
   -1.8893   14.6929   -0.6787 C   0  0  0  0  0  0  0  0  0  0  0  0
   -1.7778   14.9691    1.7094 C   0  0  0  0  0  0  0  0  0  0  0  0
   -1.1177   14.9168    0.5405 C   0  0  0  0  0  0  0  0  0  0  0  0
   -3.2287   14.5347   -0.6930 C   0  0  0  0  0  0  0  0  0  0  0  0
   -3.9161   14.6027    0.6581 C   0  0  0  0  0  0  0  0  0  0  0  0
   -5.7464   14.5422    2.0673 C   0  0  0  0  0  0  0  0  0  0  0  0
    0.3634   15.0742    0.4159 C   0  0  0  0  0  0  0  0  0  0  0  0
   -5.2101   14.4570    0.7220 N   0  0  0  0  0  0  0  0  0  0  0  0
   -3.1389   14.8187    1.7848 N   0  0  0  0  0  0  0  0  0  0  0  0
   -4.0042   14.3240   -1.7917 N   0  0  0  0  0  0  0  0  0  0  0  0
    0.7557   14.9772   -0.8722 F   0  0  0  0  0  0  0  0  0  0  0  0
    0.7694   16.2751    0.8798 F   0  0  0  0  0  0  0  0  0  0  0  0
    1.0144   14.1216    1.1170 F   0  0  0  0  0  0  0  0  0  0  0  0
   -1.3326   14.6556   -1.6117 H   0  0  0  0  0  0  0  0  0  0  0  0
   -1.2958   15.1304    2.6654 H   0  0  0  0  0  0  0  0  0  0  0  0
   -6.0050   15.5779    2.3038 H   0  0  0  0  0  0  0  0  0  0  0  0
   -6.6448   13.9256    2.1496 H   0  0  0  0  0  0  0  0  0  0  0  0
   -5.0069   14.1870    2.7894 H   0  0  0  0  0  0  0  0  0  0  0  0
   -3.5586   14.8714    2.7065 H   0  0  0  0  0  0  0  0  0  0  0  0
   -3.5659   14.2773   -2.6873 H   0  0  0  0  0  0  0  0  0  0  0  0
   -4.9895   14.2219   -1.6719 H   0  0  0  0  0  0  0  0  0  0  0  0
  1  3  1  0  0  0  0
  1  4  2  0  0  0  0
  2  3  2  0  0  0  0
  2  9  1  0  0  0  0
  3  7  1  0  0  0  0
  4  5  1  0  0  0  0
  4 10  1  0  0  0  0
  5  8  2  0  0  0  0
  5  9  1  0  0  0  0
  6  8  1  0  0  0  0
  7 11  1  0  0  0  0
  7 12  1  0  0  0  0
  7 13  1  0  0  0  0
  1 14  1  0  0  0  0
  2 15  1  0  0  0  0
  6 16  1  0  0  0  0
  6 17  1  0  0  0  0
  6 18  1  0  0  0  0
  9 19  1  0  0  0  0
 10 20  1  0  0  0  0
 10 21  1  0  0  0  0
M  END
> <HYBRID receptor title>
5S18(A) > WOY(A-201)

> <HYBRID receptor filename>
experiments/data/docking/5s18.oedu

> <HYBRID Chemgauss4 score>
-5.257943

> <HYBRID receptor title>
5S18(A) > WOY(A-201)

> <HYBRID receptor filename>
experiments/data/docking/5s18.oedu

> <Dock Type>
Hybrid

$$$$
MOL0218
  -OEChem-07032415493D

 18 18  0     0  0  0  0  0  0999 V2000
   -5.4340   14.7666   -1.1685 C   0  0  0  0  0  0  0  0  0  0  0  0
   -3.8016   14.7607    0.6000 C   0  0  0  0  0  0  0  0  0  0  0  0
   -4.0441   14.7812   -0.7213 C   0  0  0  0  0  0  0  0  0  0  0  0
   -6.4864   14.7324   -0.3256 C   0  0  0  0  0  0  0  0  0  0  0  0
   -6.1474   14.7093    1.1533 C   0  0  0  0  0  0  0  0  0  0  0  0
   -2.9714   14.8176   -1.7615 C   0  0  0  0  0  0  0  0  0  0  0  0
   -7.1142   14.6744    2.0274 N   0  0  0  0  0  0  0  0  0  0  0  0
   -4.8129   14.7259    1.5257 N   0  0  0  0  0  0  0  0  0  0  0  0
   -7.8013   14.7176   -0.6775 N   0  0  0  0  0  0  0  0  0  0  0  0
   -3.4996   14.8316   -3.0039 F   0  0  0  0  0  0  0  0  0  0  0  0
   -2.1992   15.9171   -1.6310 F   0  0  0  0  0  0  0  0  0  0  0  0
   -2.1670   13.7373   -1.6685 F   0  0  0  0  0  0  0  0  0  0  0  0
   -5.6040   14.7848   -2.2421 H   0  0  0  0  0  0  0  0  0  0  0  0
   -2.8076   14.7691    1.0291 H   0  0  0  0  0  0  0  0  0  0  0  0
   -6.7051   14.6633    2.9620 H   0  0  0  0  0  0  0  0  0  0  0  0
   -4.5433   14.7119    2.5033 H   0  0  0  0  0  0  0  0  0  0  0  0
   -8.0394   14.7329   -1.6468 H   0  0  0  0  0  0  0  0  0  0  0  0
   -8.4912   14.6918    0.0429 H   0  0  0  0  0  0  0  0  0  0  0  0
  1  3  1  0  0  0  0
  1  4  2  0  0  0  0
  2  3  2  0  0  0  0
  2  8  1  0  0  0  0
  3  6  1  0  0  0  0
  4  5  1  0  0  0  0
  4  9  1  0  0  0  0
  5  7  2  0  0  0  0
  5  8  1  0  0  0  0
  6 10  1  0  0  0  0
  6 11  1  0  0  0  0
  6 12  1  0  0  0  0
  1 13  1  0  0  0  0
  2 14  1  0  0  0  0
  7 15  1  0  0  0  0
  8 16  1  0  0  0  0
  9 17  1  0  0  0  0
  9 18  1  0  0  0  0
M  END
> <HYBRID receptor title>
5S18(A) > WOY(A-201)

> <HYBRID receptor filename>
experiments/data/docking/5s18.oedu

> <HYBRID Chemgauss4 score>
-5.255996

> <HYBRID receptor title>
5S18(A) > WOY(A-201)

> <HYBRID receptor filename>
experiments/data/docking/5s18.oedu

> <Dock Type>
Hybrid

$$$$
MOL0022
  -OEChem-07032415493D

 20 20  0     0  0  0  0  0  0999 V2000
   -4.0680   15.0687   -0.6305 C   0  0  0  0  0  0  0  0  0  0  0  0
   -1.8640   14.5676   -1.4301 C   0  0  0  0  0  0  0  0  0  0  0  0
   -3.1712   14.6881   -1.6973 C   0  0  0  0  0  0  0  0  0  0  0  0
   -3.6385   15.3049    0.6196 C   0  0  0  0  0  0  0  0  0  0  0  0
   -2.1654   15.1660    0.9137 C   0  0  0  0  0  0  0  0  0  0  0  0
    0.0855   14.6350    0.0157 C   0  0  0  0  0  0  0  0  0  0  0  0
   -3.7602   14.4482   -3.0516 C   0  0  0  0  0  0  0  0  0  0  0  0
   -1.3532   14.7963   -0.1661 N   0  0  0  0  0  0  0  0  0  0  0  0
   -4.4363   15.6666    1.6653 N   0  0  0  0  0  0  0  0  0  0  0  0
   -1.7529   15.3776    2.0547 O   0  0  0  0  0  0  0  0  0  0  0  0
   -5.0961   14.6392   -3.0395 F   0  0  0  0  0  0  0  0  0  0  0  0
   -3.2325   15.2850   -3.9691 F   0  0  0  0  0  0  0  0  0  0  0  0
   -3.5277   13.1846   -3.4644 F   0  0  0  0  0  0  0  0  0  0  0  0
   -5.1237   15.1613   -0.8711 H   0  0  0  0  0  0  0  0  0  0  0  0
   -1.1481   14.2845   -2.1946 H   0  0  0  0  0  0  0  0  0  0  0  0
    0.6050   15.5792   -0.1716 H   0  0  0  0  0  0  0  0  0  0  0  0
    0.3033   14.3113    1.0374 H   0  0  0  0  0  0  0  0  0  0  0  0
    0.4709   13.8794   -0.6744 H   0  0  0  0  0  0  0  0  0  0  0  0
   -5.4152   15.7676    1.5066 H   0  0  0  0  0  0  0  0  0  0  0  0
   -4.0164   15.8187    2.5560 H   0  0  0  0  0  0  0  0  0  0  0  0
  1  3  1  0  0  0  0
  1  4  2  0  0  0  0
  2  3  2  0  0  0  0
  2  8  1  0  0  0  0
  3  7  1  0  0  0  0
  4  5  1  0  0  0  0
  4  9  1  0  0  0  0
  5  8  1  0  0  0  0
  5 10  2  0  0  0  0
  6  8  1  0  0  0  0
  7 11  1  0  0  0  0
  7 12  1  0  0  0  0
  7 13  1  0  0  0  0
  1 14  1  0  0  0  0
  2 15  1  0  0  0  0
  6 16  1  0  0  0  0
  6 17  1  0  0  0  0
  6 18  1  0  0  0  0
  9 19  1  0  0  0  0
  9 20  1  0  0  0  0
M  END
> <HYBRID receptor title>
5S18(A) > WOY(A-201)

> <HYBRID receptor filename>
experiments/data/docking/5s18.oedu

> <HYBRID Chemgauss4 score>
-5.254938

> <HYBRID receptor title>
5S18(A) > WOY(A-201)

> <HYBRID receptor filename>
experiments/data/docking/5s18.oedu

> <Dock Type>
Hybrid

$$$$
MOL0288
  -OEChem-07032415493D

 23 23  0     0  0  0  0  0  0999 V2000
   -4.3800   14.8475    0.6714 C   0  0  0  0  0  0  0  0  0  0  0  0
   -3.7587   14.7383   -1.6416 C   0  0  0  0  0  0  0  0  0  0  0  0
   -4.7360   14.7527   -0.7255 C   0  0  0  0  0  0  0  0  0  0  0  0
   -3.1045   14.9207    1.0847 C   0  0  0  0  0  0  0  0  0  0  0  0
   -2.0090   14.9026    0.0477 C   0  0  0  0  0  0  0  0  0  0  0  0
   -1.4413   14.7857   -2.3645 C   0  0  0  0  0  0  0  0  0  0  0  0
   -1.3014   13.3748   -2.8987 C   0  0  0  0  0  0  0  0  0  0  0  0
   -6.1897   14.6752   -1.0711 C   0  0  0  0  0  0  0  0  0  0  0  0
   -2.4246   14.8109   -1.2869 N   0  0  0  0  0  0  0  0  0  0  0  0
   -2.7084   15.0116    2.3868 N   0  0  0  0  0  0  0  0  0  0  0  0
   -0.8330   14.9677    0.4077 O   0  0  0  0  0  0  0  0  0  0  0  0
   -2.4975   12.9727   -3.4077 F   0  0  0  0  0  0  0  0  0  0  0  0
   -6.9543   14.7092    0.0403 F   0  0  0  0  0  0  0  0  0  0  0  0
   -6.5604   15.7066   -1.8582 F   0  0  0  0  0  0  0  0  0  0  0  0
   -6.4708   13.5319   -1.7307 F   0  0  0  0  0  0  0  0  0  0  0  0
   -5.1896   14.8587    1.3963 H   0  0  0  0  0  0  0  0  0  0  0  0
   -3.9714   14.6685   -2.7032 H   0  0  0  0  0  0  0  0  0  0  0  0
   -1.7700   15.4594   -3.1610 H   0  0  0  0  0  0  0  0  0  0  0  0
   -0.4800   15.1423   -1.9830 H   0  0  0  0  0  0  0  0  0  0  0  0
   -0.5673   13.3363   -3.7084 H   0  0  0  0  0  0  0  0  0  0  0  0
   -1.0101   12.6651   -2.1182 H   0  0  0  0  0  0  0  0  0  0  0  0
   -3.4062   15.0261    3.0985 H   0  0  0  0  0  0  0  0  0  0  0  0
   -1.7335   15.0608    2.5871 H   0  0  0  0  0  0  0  0  0  0  0  0
  1  3  1  0  0  0  0
  1  4  2  0  0  0  0
  2  3  2  0  0  0  0
  2  9  1  0  0  0  0
  3  8  1  0  0  0  0
  4  5  1  0  0  0  0
  4 10  1  0  0  0  0
  5  9  1  0  0  0  0
  5 11  2  0  0  0  0
  6  7  1  0  0  0  0
  6  9  1  0  0  0  0
  7 12  1  0  0  0  0
  8 13  1  0  0  0  0
  8 14  1  0  0  0  0
  8 15  1  0  0  0  0
  1 16  1  0  0  0  0
  2 17  1  0  0  0  0
  6 18  1  0  0  0  0
  6 19  1  0  0  0  0
  7 20  1  0  0  0  0
  7 21  1  0  0  0  0
 10 22  1  0  0  0  0
 10 23  1  0  0  0  0
M  END
> <HYBRID receptor title>
5S18(A) > WOY(A-201)

> <HYBRID receptor filename>
experiments/data/docking/5s18.oedu

> <HYBRID Chemgauss4 score>
-5.233085

> <HYBRID receptor title>
5S18(A) > WOY(A-201)

> <HYBRID receptor filename>
experiments/data/docking/5s18.oedu

> <Dock Type>
Hybrid

$$$$
MOL0264
  -OEChem-07032415493D

 24 24  0     0  0  0  0  0  0999 V2000
   -4.0635   15.0919   -0.0557 C   0  0  0  0  0  0  0  0  0  0  0  0
   -2.3570   14.2991   -1.5413 C   0  0  0  0  0  0  0  0  0  0  0  0
   -3.6304   14.6784   -1.3704 C   0  0  0  0  0  0  0  0  0  0  0  0
   -3.2358   15.1089    1.0015 C   0  0  0  0  0  0  0  0  0  0  0  0
   -1.8035   14.6792    0.8020 C   0  0  0  0  0  0  0  0  0  0  0  0
   -0.0892   13.8596   -0.7931 C   0  0  0  0  0  0  0  0  0  0  0  0
    0.8286   15.0667   -0.8577 C   0  0  0  0  0  0  0  0  0  0  0  0
   -4.6390   14.6977   -2.4753 C   0  0  0  0  0  0  0  0  0  0  0  0
   -1.4509   14.2926   -0.4974 N   0  0  0  0  0  0  0  0  0  0  0  0
   -3.5870   15.4887    2.2637 N   0  0  0  0  0  0  0  0  0  0  0  0
   -1.0297   14.6870    1.7602 O   0  0  0  0  0  0  0  0  0  0  0  0
    2.1556   14.6380   -1.1353 O   0  0  0  0  0  0  0  0  0  0  0  0
   -5.8399   15.1201   -2.0275 F   0  0  0  0  0  0  0  0  0  0  0  0
   -4.2568   15.5236   -3.4714 F   0  0  0  0  0  0  0  0  0  0  0  0
   -4.8048   13.4662   -3.0019 F   0  0  0  0  0  0  0  0  0  0  0  0
   -5.1004   15.3964    0.0587 H   0  0  0  0  0  0  0  0  0  0  0  0
   -1.9805   13.9796   -2.5074 H   0  0  0  0  0  0  0  0  0  0  0  0
    0.2324   13.1738   -0.0035 H   0  0  0  0  0  0  0  0  0  0  0  0
   -0.1017   13.3253   -1.7481 H   0  0  0  0  0  0  0  0  0  0  0  0
    0.5159   15.7707   -1.6357 H   0  0  0  0  0  0  0  0  0  0  0  0
    0.8356   15.5831    0.1070 H   0  0  0  0  0  0  0  0  0  0  0  0
   -4.5259   15.7786    2.4313 H   0  0  0  0  0  0  0  0  0  0  0  0
   -2.8945   15.4647    2.9797 H   0  0  0  0  0  0  0  0  0  0  0  0
    2.7061   15.4367   -1.1677 H   0  0  0  0  0  0  0  0  0  0  0  0
  1  3  1  0  0  0  0
  1  4  2  0  0  0  0
  2  3  2  0  0  0  0
  2  9  1  0  0  0  0
  3  8  1  0  0  0  0
  4  5  1  0  0  0  0
  4 10  1  0  0  0  0
  5  9  1  0  0  0  0
  5 11  2  0  0  0  0
  6  7  1  0  0  0  0
  6  9  1  0  0  0  0
  7 12  1  0  0  0  0
  8 13  1  0  0  0  0
  8 14  1  0  0  0  0
  8 15  1  0  0  0  0
  1 16  1  0  0  0  0
  2 17  1  0  0  0  0
  6 18  1  0  0  0  0
  6 19  1  0  0  0  0
  7 20  1  0  0  0  0
  7 21  1  0  0  0  0
 10 22  1  0  0  0  0
 10 23  1  0  0  0  0
 12 24  1  0  0  0  0
M  END
> <HYBRID receptor title>
5S18(A) > WOY(A-201)

> <HYBRID receptor filename>
experiments/data/docking/5s18.oedu

> <HYBRID Chemgauss4 score>
-5.225214

> <HYBRID receptor title>
5S18(A) > WOY(A-201)

> <HYBRID receptor filename>
experiments/data/docking/5s18.oedu

> <Dock Type>
Hybrid

$$$$
MOL0423
  -OEChem-07032415493D

 32 33  0     0  0  0  0  0  0999 V2000
    0.7081   14.2790   -1.4771 C   0  0  0  0  0  0  0  0  0  0  0  0
   -5.3531   15.2778   -0.3050 C   0  0  0  0  0  0  0  0  0  0  0  0
   -1.2911   14.8192   -2.6887 C   0  0  0  0  0  0  0  0  0  0  0  0
   -3.7598   13.8802   -1.4257 C   0  0  0  0  0  0  0  0  0  0  0  0
   -0.7330   14.2320   -1.6213 C   0  0  0  0  0  0  0  0  0  0  0  0
   -4.9928   14.4032   -1.3969 C   0  0  0  0  0  0  0  0  0  0  0  0
    1.5042   14.8888   -2.3722 C   0  0  0  0  0  0  0  0  0  0  0  0
   -4.4969   15.5846    0.6828 C   0  0  0  0  0  0  0  0  0  0  0  0
    0.8582   15.5427   -3.5649 C   0  0  0  0  0  0  0  0  0  0  0  0
   -3.1105   14.9910    0.6447 C   0  0  0  0  0  0  0  0  0  0  0  0
   -1.5148   13.5302   -0.5696 C   0  0  0  0  0  0  0  0  0  0  0  0
   -6.0277   14.1297   -2.4422 C   0  0  0  0  0  0  0  0  0  0  0  0
   -0.5228   15.4534   -3.6295 N   0  0  0  0  0  0  0  0  0  0  0  0
   -2.8277   14.1538   -0.4422 N   0  0  0  0  0  0  0  0  0  0  0  0
    2.8628   14.9681   -2.2945 N   0  0  0  0  0  0  0  0  0  0  0  0
   -4.7798   16.4026    1.7371 N   0  0  0  0  0  0  0  0  0  0  0  0
    1.5338   16.1158   -4.4176 O   0  0  0  0  0  0  0  0  0  0  0  0
   -2.3115   15.2599    1.5427 O   0  0  0  0  0  0  0  0  0  0  0  0
   -7.1771   14.7817   -2.1682 F   0  0  0  0  0  0  0  0  0  0  0  0
   -5.6083   14.5282   -3.6612 F   0  0  0  0  0  0  0  0  0  0  0  0
   -6.3080   12.8115   -2.5135 F   0  0  0  0  0  0  0  0  0  0  0  0
    1.1393   13.7961   -0.6043 H   0  0  0  0  0  0  0  0  0  0  0  0
   -6.3582   15.6911   -0.3034 H   0  0  0  0  0  0  0  0  0  0  0  0
   -2.3587   14.8292   -2.8706 H   0  0  0  0  0  0  0  0  0  0  0  0
   -3.4383   13.2179   -2.2227 H   0  0  0  0  0  0  0  0  0  0  0  0
   -1.6274   12.4754   -0.8358 H   0  0  0  0  0  0  0  0  0  0  0  0
   -0.9909   13.5873    0.3886 H   0  0  0  0  0  0  0  0  0  0  0  0
   -0.9933   15.8833   -4.4205 H   0  0  0  0  0  0  0  0  0  0  0  0
    3.3232   14.5453   -1.5174 H   0  0  0  0  0  0  0  0  0  0  0  0
    3.3564   15.4463   -3.0167 H   0  0  0  0  0  0  0  0  0  0  0  0
   -5.6869   16.8121    1.7939 H   0  0  0  0  0  0  0  0  0  0  0  0
   -4.0713   16.5658    2.4185 H   0  0  0  0  0  0  0  0  0  0  0  0
  1  5  1  0  0  0  0
  1  7  2  0  0  0  0
  2  6  1  0  0  0  0
  2  8  2  0  0  0  0
  3  5  2  0  0  0  0
  3 13  1  0  0  0  0
  4  6  2  0  0  0  0
  4 14  1  0  0  0  0
  5 11  1  0  0  0  0
  6 12  1  0  0  0  0
  7  9  1  0  0  0  0
  7 15  1  0  0  0  0
  8 10  1  0  0  0  0
  8 16  1  0  0  0  0
  9 13  1  0  0  0  0
  9 17  2  0  0  0  0
 10 14  1  0  0  0  0
 10 18  2  0  0  0  0
 11 14  1  0  0  0  0
 12 19  1  0  0  0  0
 12 20  1  0  0  0  0
 12 21  1  0  0  0  0
  1 22  1  0  0  0  0
  2 23  1  0  0  0  0
  3 24  1  0  0  0  0
  4 25  1  0  0  0  0
 11 26  1  0  0  0  0
 11 27  1  0  0  0  0
 13 28  1  0  0  0  0
 15 29  1  0  0  0  0
 15 30  1  0  0  0  0
 16 31  1  0  0  0  0
 16 32  1  0  0  0  0
M  END
> <HYBRID receptor title>
5S18(A) > WOY(A-201)

> <HYBRID receptor filename>
experiments/data/docking/5s18.oedu

> <HYBRID Chemgauss4 score>
-5.164618

> <HYBRID receptor title>
5S18(A) > WOY(A-201)

> <HYBRID receptor filename>
experiments/data/docking/5s18.oedu

> <Dock Type>
Hybrid

$$$$
MOL0399
  -OEChem-07032415493D

 24 24  0     0  0  0  0  0  0999 V2000
   -0.3868   14.3429   -1.8610 C   0  0  0  0  0  0  0  0  0  0  0  0
   -1.8377   14.2565   -1.8915 C   0  0  0  0  0  0  0  0  0  0  0  0
    0.3108   14.5856   -0.7415 C   0  0  0  0  0  0  0  0  0  0  0  0
   -2.5453   14.4256   -0.7501 C   0  0  0  0  0  0  0  0  0  0  0  0
   -0.4631   14.7733    0.5251 C   0  0  0  0  0  0  0  0  0  0  0  0
   -4.6465   15.0812    0.2651 C   0  0  0  0  0  0  0  0  0  0  0  0
   -2.4213   13.9764   -3.2488 C   0  0  0  0  0  0  0  0  0  0  0  0
   -5.9085   14.3626    0.6449 C   0  0  0  0  0  0  0  0  0  0  0  0
   -1.8369   14.6770    0.4138 N   0  0  0  0  0  0  0  0  0  0  0  0
    1.6677   14.6765   -0.6550 N   0  0  0  0  0  0  0  0  0  0  0  0
   -3.9037   14.3666   -0.6615 N   0  0  0  0  0  0  0  0  0  0  0  0
    0.1082   14.9989    1.5905 O   0  0  0  0  0  0  0  0  0  0  0  0
   -4.3520   16.1718    0.7468 O   0  0  0  0  0  0  0  0  0  0  0  0
   -1.4476   13.8622   -4.1721 F   0  0  0  0  0  0  0  0  0  0  0  0
   -3.1276   12.8299   -3.2414 F   0  0  0  0  0  0  0  0  0  0  0  0
   -3.2444   14.9723   -3.6290 F   0  0  0  0  0  0  0  0  0  0  0  0
   -6.0334   13.1778   -0.0056 F   0  0  0  0  0  0  0  0  0  0  0  0
   -5.9578   14.0902    1.9742 F   0  0  0  0  0  0  0  0  0  0  0  0
   -7.0165   15.0896    0.3528 F   0  0  0  0  0  0  0  0  0  0  0  0
    0.1403   14.2007   -2.8012 H   0  0  0  0  0  0  0  0  0  0  0  0
   -2.3780   14.8022    1.2646 H   0  0  0  0  0  0  0  0  0  0  0  0
    2.2097   14.5555   -1.4837 H   0  0  0  0  0  0  0  0  0  0  0  0
    2.0797   14.8615    0.2340 H   0  0  0  0  0  0  0  0  0  0  0  0
   -4.4009   13.7638   -1.3124 H   0  0  0  0  0  0  0  0  0  0  0  0
  1  2  1  0  0  0  0
  1  3  2  0  0  0  0
  2  4  2  0  0  0  0
  2  7  1  0  0  0  0
  3  5  1  0  0  0  0
  3 10  1  0  0  0  0
  4  9  1  0  0  0  0
  4 11  1  0  0  0  0
  5  9  1  0  0  0  0
  5 12  2  0  0  0  0
  6  8  1  0  0  0  0
  6 11  1  0  0  0  0
  6 13  2  0  0  0  0
  7 14  1  0  0  0  0
  7 15  1  0  0  0  0
  7 16  1  0  0  0  0
  8 17  1  0  0  0  0
  8 18  1  0  0  0  0
  8 19  1  0  0  0  0
  1 20  1  0  0  0  0
  9 21  1  0  0  0  0
 10 22  1  0  0  0  0
 10 23  1  0  0  0  0
 11 24  1  0  0  0  0
M  END
> <HYBRID receptor title>
5S18(A) > WOY(A-201)

> <HYBRID receptor filename>
experiments/data/docking/5s18.oedu

> <HYBRID Chemgauss4 score>
-5.131686

> <HYBRID receptor title>
5S18(A) > WOY(A-201)

> <HYBRID receptor filename>
experiments/data/docking/5s18.oedu

> <Dock Type>
Hybrid

$$$$
MOL0319
  -OEChem-07032415493D

 26 27  0     0  0  0  0  0  0999 V2000
   -1.2916   15.1337   -0.6953 C   0  0  0  0  0  0  0  0  0  0  0  0
   -3.4684   14.9268    0.2923 C   0  0  0  0  0  0  0  0  0  0  0  0
   -2.7321   15.0402   -0.8216 C   0  0  0  0  0  0  0  0  0  0  0  0
   -0.6677   15.1106    0.4952 C   0  0  0  0  0  0  0  0  0  0  0  0
   -1.5124   14.9827    1.7351 C   0  0  0  0  0  0  0  0  0  0  0  0
   -4.9655   14.1826   -3.4009 C   0  0  0  0  0  0  0  0  0  0  0  0
   -3.5863   13.6952   -2.9222 C   0  0  0  0  0  0  0  0  0  0  0  0
   -4.9419   15.2037   -2.2501 C   0  0  0  0  0  0  0  0  0  0  0  0
   -3.3890   15.0724   -2.2183 C   0  0  0  0  0  0  0  0  0  0  0  0
   -2.8799   14.8989    1.5294 N   0  0  0  0  0  0  0  0  0  0  0  0
    0.6801   15.1940    0.6811 N   0  0  0  0  0  0  0  0  0  0  0  0
   -2.7252   16.0566   -3.0852 N   0  0  0  0  0  0  0  0  0  0  0  0
   -0.9992   14.9562    2.8523 O   0  0  0  0  0  0  0  0  0  0  0  0
   -0.7165   15.2248   -1.6126 H   0  0  0  0  0  0  0  0  0  0  0  0
   -4.5490   14.8519    0.2882 H   0  0  0  0  0  0  0  0  0  0  0  0
   -4.9608   14.6324   -4.4001 H   0  0  0  0  0  0  0  0  0  0  0  0
   -5.7683   13.4417   -3.3569 H   0  0  0  0  0  0  0  0  0  0  0  0
   -3.6514   12.8403   -2.2360 H   0  0  0  0  0  0  0  0  0  0  0  0
   -2.8760   13.4383   -3.7150 H   0  0  0  0  0  0  0  0  0  0  0  0
   -5.3500   16.1914   -2.4886 H   0  0  0  0  0  0  0  0  0  0  0  0
   -5.4464   14.8383   -1.3458 H   0  0  0  0  0  0  0  0  0  0  0  0
   -3.4814   14.8116    2.3433 H   0  0  0  0  0  0  0  0  0  0  0  0
    1.2692   15.2799   -0.1190 H   0  0  0  0  0  0  0  0  0  0  0  0
    1.0374   15.1669    1.6114 H   0  0  0  0  0  0  0  0  0  0  0  0
   -1.7388   15.8217   -3.1579 H   0  0  0  0  0  0  0  0  0  0  0  0
   -2.7726   16.9718   -2.6446 H   0  0  0  0  0  0  0  0  0  0  0  0
  1  3  1  0  0  0  0
  1  4  2  0  0  0  0
  2  3  2  0  0  0  0
  2 10  1  0  0  0  0
  3  9  1  0  0  0  0
  4  5  1  0  0  0  0
  4 11  1  0  0  0  0
  5 10  1  0  0  0  0
  5 13  2  0  0  0  0
  6  7  1  0  0  0  0
  6  8  1  0  0  0  0
  7  9  1  0  0  0  0
  8  9  1  0  0  0  0
  9 12  1  0  0  0  0
  1 14  1  0  0  0  0
  2 15  1  0  0  0  0
  6 16  1  0  0  0  0
  6 17  1  0  0  0  0
  7 18  1  0  0  0  0
  7 19  1  0  0  0  0
  8 20  1  0  0  0  0
  8 21  1  0  0  0  0
 10 22  1  0  0  0  0
 11 23  1  0  0  0  0
 11 24  1  0  0  0  0
 12 25  1  0  0  0  0
 12 26  1  0  0  0  0
M  END
> <HYBRID receptor title>
5S18(A) > WOY(A-201)

> <HYBRID receptor filename>
experiments/data/docking/5s18.oedu

> <HYBRID Chemgauss4 score>
-5.129407

> <HYBRID receptor title>
5S18(A) > WOY(A-201)

> <HYBRID receptor filename>
experiments/data/docking/5s18.oedu

> <Dock Type>
Hybrid

$$$$
MOL0131
  -OEChem-07032415493D

 30 31  0     0  0  0  0  0  0999 V2000
   -0.8436   14.7731   -0.8076 C   0  0  0  0  0  0  0  0  0  0  0  0
   -2.8992   14.6354    0.4220 C   0  0  0  0  0  0  0  0  0  0  0  0
   -2.2743   14.5488   -0.7602 C   0  0  0  0  0  0  0  0  0  0  0  0
   -0.1212   15.0638    0.2882 C   0  0  0  0  0  0  0  0  0  0  0  0
   -0.8415   15.1567    1.6072 C   0  0  0  0  0  0  0  0  0  0  0  0
   -1.8307   14.3917   -4.2129 C   0  0  0  0  0  0  0  0  0  0  0  0
   -2.1729   15.7847   -3.7166 C   0  0  0  0  0  0  0  0  0  0  0  0
   -2.0067   13.4912   -2.9915 C   0  0  0  0  0  0  0  0  0  0  0  0
   -3.3471   15.5330   -2.7811 C   0  0  0  0  0  0  0  0  0  0  0  0
   -2.9818   14.2290   -2.0533 C   0  0  0  0  0  0  0  0  0  0  0  0
   -4.2209   13.3962   -1.7306 C   0  0  0  0  0  0  0  0  0  0  0  0
   -2.2075   14.9293    1.5678 N   0  0  0  0  0  0  0  0  0  0  0  0
    1.2236   15.2851    0.3107 N   0  0  0  0  0  0  0  0  0  0  0  0
   -0.2350   15.4194    2.6442 O   0  0  0  0  0  0  0  0  0  0  0  0
   -5.0368   14.0890   -0.9249 F   0  0  0  0  0  0  0  0  0  0  0  0
   -3.8585   12.2615   -1.1177 F   0  0  0  0  0  0  0  0  0  0  0  0
   -4.8731   13.0955   -2.8615 F   0  0  0  0  0  0  0  0  0  0  0  0
   -0.3575   14.6983   -1.7766 H   0  0  0  0  0  0  0  0  0  0  0  0
   -3.9644   14.4822    0.5434 H   0  0  0  0  0  0  0  0  0  0  0  0
   -2.5350   14.0912   -4.9979 H   0  0  0  0  0  0  0  0  0  0  0  0
   -0.8202   14.3332   -4.6279 H   0  0  0  0  0  0  0  0  0  0  0  0
   -1.3271   16.2148   -3.1678 H   0  0  0  0  0  0  0  0  0  0  0  0
   -2.4320   16.4640   -4.5338 H   0  0  0  0  0  0  0  0  0  0  0  0
   -2.3744   12.5055   -3.2995 H   0  0  0  0  0  0  0  0  0  0  0  0
   -1.0299   13.3290   -2.5184 H   0  0  0  0  0  0  0  0  0  0  0  0
   -3.5164   16.3808   -2.1079 H   0  0  0  0  0  0  0  0  0  0  0  0
   -4.2581   15.4055   -3.3802 H   0  0  0  0  0  0  0  0  0  0  0  0
   -2.7267   14.9836    2.4393 H   0  0  0  0  0  0  0  0  0  0  0  0
    1.7318   15.2316   -0.5458 H   0  0  0  0  0  0  0  0  0  0  0  0
    1.6598   15.4939    1.1824 H   0  0  0  0  0  0  0  0  0  0  0  0
  1  3  1  0  0  0  0
  1  4  2  0  0  0  0
  2  3  2  0  0  0  0
  2 12  1  0  0  0  0
  3 10  1  0  0  0  0
  4  5  1  0  0  0  0
  4 13  1  0  0  0  0
  5 12  1  0  0  0  0
  5 14  2  0  0  0  0
  6  7  1  0  0  0  0
  6  8  1  0  0  0  0
  7  9  1  0  0  0  0
  8 10  1  0  0  0  0
  9 10  1  0  0  0  0
 10 11  1  0  0  0  0
 11 15  1  0  0  0  0
 11 16  1  0  0  0  0
 11 17  1  0  0  0  0
  1 18  1  0  0  0  0
  2 19  1  0  0  0  0
  6 20  1  0  0  0  0
  6 21  1  0  0  0  0
  7 22  1  0  0  0  0
  7 23  1  0  0  0  0
  8 24  1  0  0  0  0
  8 25  1  0  0  0  0
  9 26  1  0  0  0  0
  9 27  1  0  0  0  0
 12 28  1  0  0  0  0
 13 29  1  0  0  0  0
 13 30  1  0  0  0  0
M  END
> <HYBRID receptor title>
5S18(A) > WOY(A-201)

> <HYBRID receptor filename>
experiments/data/docking/5s18.oedu

> <HYBRID Chemgauss4 score>
-5.110432

> <HYBRID receptor title>
5S18(A) > WOY(A-201)

> <HYBRID receptor filename>
experiments/data/docking/5s18.oedu

> <Dock Type>
Hybrid

$$$$
MOL0402
  -OEChem-07032415493D

 25 25  0     0  0  0  0  0  0999 V2000
   -2.3773   14.6359   -1.1894 C   0  0  0  0  0  0  0  0  0  0  0  0
   -1.9419   14.6869    1.2028 C   0  0  0  0  0  0  0  0  0  0  0  0
   -3.6830   14.7994   -0.9488 C   0  0  0  0  0  0  0  0  0  0  0  0
   -1.4994   14.5817   -0.0539 C   0  0  0  0  0  0  0  0  0  0  0  0
   -4.2446   14.9248    0.4235 C   0  0  0  0  0  0  0  0  0  0  0  0
    1.8372   14.6571   -1.6839 C   0  0  0  0  0  0  0  0  0  0  0  0
    0.1183   12.8957   -2.1998 C   0  0  0  0  0  0  0  0  0  0  0  0
    0.3569   14.2991   -1.6569 C   0  0  0  0  0  0  0  0  0  0  0  0
   -3.2901   14.8555    1.4371 N   0  0  0  0  0  0  0  0  0  0  0  0
   -4.6110   14.8649   -1.9539 N   0  0  0  0  0  0  0  0  0  0  0  0
   -0.1650   14.4138   -0.3245 N   0  0  0  0  0  0  0  0  0  0  0  0
   -5.4455   15.0754    0.6306 O   0  0  0  0  0  0  0  0  0  0  0  0
   -1.9824   14.5461   -2.1955 H   0  0  0  0  0  0  0  0  0  0  0  0
   -1.3081   14.6500    2.0800 H   0  0  0  0  0  0  0  0  0  0  0  0
    2.4183   13.9529   -1.0787 H   0  0  0  0  0  0  0  0  0  0  0  0
    2.0046   15.6638   -1.2859 H   0  0  0  0  0  0  0  0  0  0  0  0
    2.2369   14.6221   -2.7031 H   0  0  0  0  0  0  0  0  0  0  0  0
    0.6565   12.1449   -1.6101 H   0  0  0  0  0  0  0  0  0  0  0  0
    0.4501   12.8168   -3.2396 H   0  0  0  0  0  0  0  0  0  0  0  0
   -0.9469   12.6407   -2.1629 H   0  0  0  0  0  0  0  0  0  0  0  0
   -0.1954   15.0203   -2.2700 H   0  0  0  0  0  0  0  0  0  0  0  0
   -3.6047   14.9333    2.3997 H   0  0  0  0  0  0  0  0  0  0  0  0
   -4.2955   14.7874   -2.8936 H   0  0  0  0  0  0  0  0  0  0  0  0
   -5.5660   14.9875   -1.7076 H   0  0  0  0  0  0  0  0  0  0  0  0
    0.4633   14.3736    0.4556 H   0  0  0  0  0  0  0  0  0  0  0  0
  1  3  2  0  0  0  0
  1  4  1  0  0  0  0
  2  4  2  0  0  0  0
  2  9  1  0  0  0  0
  3  5  1  0  0  0  0
  3 10  1  0  0  0  0
  4 11  1  0  0  0  0
  5  9  1  0  0  0  0
  5 12  2  0  0  0  0
  6  8  1  0  0  0  0
  7  8  1  0  0  0  0
  8 11  1  0  0  0  0
  1 13  1  0  0  0  0
  2 14  1  0  0  0  0
  6 15  1  0  0  0  0
  6 16  1  0  0  0  0
  6 17  1  0  0  0  0
  7 18  1  0  0  0  0
  7 19  1  0  0  0  0
  7 20  1  0  0  0  0
  8 21  1  0  0  0  0
  9 22  1  0  0  0  0
 10 23  1  0  0  0  0
 10 24  1  0  0  0  0
 11 25  1  0  0  0  0
M  END
> <HYBRID receptor title>
5S18(A) > WOY(A-201)

> <HYBRID receptor filename>
experiments/data/docking/5s18.oedu

> <HYBRID Chemgauss4 score>
-5.107025

> <HYBRID receptor title>
5S18(A) > WOY(A-201)

> <HYBRID receptor filename>
experiments/data/docking/5s18.oedu

> <Dock Type>
Hybrid

$$$$
MOL0191
  -OEChem-07032415493D

 22 22  0     0  0  0  0  0  0999 V2000
   -1.7088   14.8715   -1.2175 C   0  0  0  0  0  0  0  0  0  0  0  0
   -0.4906   15.1540    0.8685 C   0  0  0  0  0  0  0  0  0  0  0  0
   -0.6010   14.3888   -1.7915 C   0  0  0  0  0  0  0  0  0  0  0  0
   -1.6206   15.2595    0.1626 C   0  0  0  0  0  0  0  0  0  0  0  0
    0.6899   14.2428   -1.0659 C   0  0  0  0  0  0  0  0  0  0  0  0
   -4.0046   15.8834    0.0125 C   0  0  0  0  0  0  0  0  0  0  0  0
   -4.7838   14.6021    0.1415 C   0  0  0  0  0  0  0  0  0  0  0  0
    0.6439   14.6547    0.2650 N   0  0  0  0  0  0  0  0  0  0  0  0
   -0.5689   13.9884   -3.1009 N   0  0  0  0  0  0  0  0  0  0  0  0
   -2.7686   15.7513    0.7305 N   0  0  0  0  0  0  0  0  0  0  0  0
    1.6995   13.7974   -1.6046 O   0  0  0  0  0  0  0  0  0  0  0  0
   -5.9645   14.6775   -0.5094 F   0  0  0  0  0  0  0  0  0  0  0  0
   -4.0947   13.5548   -0.3598 F   0  0  0  0  0  0  0  0  0  0  0  0
   -5.0475   14.3356    1.4403 F   0  0  0  0  0  0  0  0  0  0  0  0
   -2.6429   14.9721   -1.7592 H   0  0  0  0  0  0  0  0  0  0  0  0
   -0.3901   15.4372    1.9088 H   0  0  0  0  0  0  0  0  0  0  0  0
   -4.5625   16.7253    0.4315 H   0  0  0  0  0  0  0  0  0  0  0  0
   -3.7771   16.0996   -1.0354 H   0  0  0  0  0  0  0  0  0  0  0  0
    1.4917   14.5831    0.8199 H   0  0  0  0  0  0  0  0  0  0  0  0
   -1.4024   14.0621   -3.6377 H   0  0  0  0  0  0  0  0  0  0  0  0
    0.2865   13.6389   -3.4668 H   0  0  0  0  0  0  0  0  0  0  0  0
   -2.7271   16.0250    1.6939 H   0  0  0  0  0  0  0  0  0  0  0  0
  1  3  2  0  0  0  0
  1  4  1  0  0  0  0
  2  4  2  0  0  0  0
  2  8  1  0  0  0  0
  3  5  1  0  0  0  0
  3  9  1  0  0  0  0
  4 10  1  0  0  0  0
  5  8  1  0  0  0  0
  5 11  2  0  0  0  0
  6  7  1  0  0  0  0
  6 10  1  0  0  0  0
  7 12  1  0  0  0  0
  7 13  1  0  0  0  0
  7 14  1  0  0  0  0
  1 15  1  0  0  0  0
  2 16  1  0  0  0  0
  6 17  1  0  0  0  0
  6 18  1  0  0  0  0
  8 19  1  0  0  0  0
  9 20  1  0  0  0  0
  9 21  1  0  0  0  0
 10 22  1  0  0  0  0
M  END
> <HYBRID receptor title>
5S18(A) > WOY(A-201)

> <HYBRID receptor filename>
experiments/data/docking/5s18.oedu

> <HYBRID Chemgauss4 score>
-5.074554

> <HYBRID receptor title>
5S18(A) > WOY(A-201)

> <HYBRID receptor filename>
experiments/data/docking/5s18.oedu

> <Dock Type>
Hybrid

$$$$
MOL0195
  -OEChem-07032415493D

 30 31  0     1  0  0  0  0  0999 V2000
   -0.6795   14.9317   -2.3376 C   0  0  0  0  0  0  0  0  0  0  0  0
   -0.2151   14.6706    0.0354 C   0  0  0  0  0  0  0  0  0  0  0  0
   -1.0895   14.7844   -0.9690 C   0  0  0  0  0  0  0  0  0  0  0  0
    0.6349   14.9518   -2.5861 C   0  0  0  0  0  0  0  0  0  0  0  0
    1.6634   14.8291   -1.5178 C   0  0  0  0  0  0  0  0  0  0  0  0
   -3.0688   15.2340    0.4703 C   0  0  0  0  0  0  0  0  0  0  0  0
   -4.4881   15.5178   -0.0068 C   0  0  2  0  0  0  0  0  0  0  0  0
   -3.4518   14.3250   -1.6748 C   0  0  2  0  0  0  0  0  0  0  0  0
   -5.5337   15.3720    1.0807 C   0  0  0  0  0  0  0  0  0  0  0  0
   -3.3425   12.8426   -1.9890 C   0  0  0  0  0  0  0  0  0  0  0  0
    1.1368   14.6926   -0.2344 N   0  0  0  0  0  0  0  0  0  0  0  0
   -2.4278   14.7662   -0.7403 N   0  0  3  0  0  0  0  0  0  0  0  0
    1.1395   15.0876   -3.8520 N   0  0  0  0  0  0  0  0  0  0  0  0
    2.8672   14.8483   -1.7595 O   0  0  0  0  0  0  0  0  0  0  0  0
   -4.7271   14.5508   -1.0438 O   0  0  0  0  0  0  0  0  0  0  0  0
   -2.1847   12.5823   -2.6205 F   0  0  0  0  0  0  0  0  0  0  0  0
   -4.3582   12.4561   -2.7803 F   0  0  0  0  0  0  0  0  0  0  0  0
   -3.3835   12.1202   -0.8560 F   0  0  0  0  0  0  0  0  0  0  0  0
   -1.4177   15.0221   -3.1270 H   0  0  0  0  0  0  0  0  0  0  0  0
   -0.4902   14.5586    1.0767 H   0  0  0  0  0  0  0  0  0  0  0  0
   -2.6013   16.1318    0.8885 H   0  0  0  0  0  0  0  0  0  0  0  0
   -3.0450   14.4377    1.2230 H   0  0  0  0  0  0  0  0  0  0  0  0
   -4.5504   16.5152   -0.4596 H   0  0  0  0  0  0  0  0  0  0  0  0
   -3.4188   14.9213   -2.5941 H   0  0  0  0  0  0  0  0  0  0  0  0
   -5.4753   14.3799    1.5346 H   0  0  0  0  0  0  0  0  0  0  0  0
   -6.5357   15.5061    0.6660 H   0  0  0  0  0  0  0  0  0  0  0  0
   -5.3783   16.1211    1.8619 H   0  0  0  0  0  0  0  0  0  0  0  0
    1.7837   14.6046    0.5438 H   0  0  0  0  0  0  0  0  0  0  0  0
    0.5001   15.1739   -4.6085 H   0  0  0  0  0  0  0  0  0  0  0  0
    2.1264   15.0951   -3.9686 H   0  0  0  0  0  0  0  0  0  0  0  0
  1  3  1  0  0  0  0
  1  4  2  0  0  0  0
  2  3  2  0  0  0  0
  2 11  1  0  0  0  0
  3 12  1  0  0  0  0
  4  5  1  0  0  0  0
  4 13  1  0  0  0  0
  5 11  1  0  0  0  0
  5 14  2  0  0  0  0
  6  7  1  0  0  0  0
  6 12  1  0  0  0  0
  7  9  1  0  0  0  0
  7 15  1  0  0  0  0
  8 10  1  0  0  0  0
  8 12  1  0  0  0  0
  8 15  1  0  0  0  0
 10 16  1  0  0  0  0
 10 17  1  0  0  0  0
 10 18  1  0  0  0  0
  1 19  1  0  0  0  0
  2 20  1  0  0  0  0
  6 21  1  0  0  0  0
  6 22  1  0  0  0  0
  7 23  1  0  0  0  0
  8 24  1  0  0  0  0
  9 25  1  0  0  0  0
  9 26  1  0  0  0  0
  9 27  1  0  0  0  0
 11 28  1  0  0  0  0
 13 29  1  0  0  0  0
 13 30  1  0  0  0  0
M  END
> <HYBRID receptor title>
5S18(A) > WOY(A-201)

> <HYBRID receptor filename>
experiments/data/docking/5s18.oedu

> <HYBRID Chemgauss4 score>
-5.043343

> <HYBRID receptor title>
5S18(A) > WOY(A-201)

> <HYBRID receptor filename>
experiments/data/docking/5s18.oedu

> <Dock Type>
Hybrid

$$$$
MOL0084
  -OEChem-07032415493D

 17 17  0     0  0  0  0  0  0999 V2000
   -5.2160   14.0996   -0.9641 C   0  0  0  0  0  0  0  0  0  0  0  0
   -4.1937   13.8485   -1.8792 C   0  0  0  0  0  0  0  0  0  0  0  0
   -4.9347   14.7622    0.2306 C   0  0  0  0  0  0  0  0  0  0  0  0
   -2.6091   14.9230   -0.4053 C   0  0  0  0  0  0  0  0  0  0  0  0
   -2.8904   14.2603   -1.6000 C   0  0  0  0  0  0  0  0  0  0  0  0
   -3.6314   15.1740    0.5098 C   0  0  0  0  0  0  0  0  0  0  0  0
   -1.7979   13.9911   -2.5789 C   0  0  0  0  0  0  0  0  0  0  0  0
   -3.3477   15.8440    1.7180 N   0  0  0  0  0  0  0  0  0  0  0  0
   -2.2153   13.3357   -3.7021 F   0  0  0  0  0  0  0  0  0  0  0  0
   -0.8014   13.2197   -2.0545 F   0  0  0  0  0  0  0  0  0  0  0  0
   -1.1838   15.1233   -3.0339 F   0  0  0  0  0  0  0  0  0  0  0  0
   -6.2306   13.7787   -1.1815 H   0  0  0  0  0  0  0  0  0  0  0  0
   -4.4220   13.3313   -2.8075 H   0  0  0  0  0  0  0  0  0  0  0  0
   -5.7388   14.9533    0.9366 H   0  0  0  0  0  0  0  0  0  0  0  0
   -1.5924   15.2432   -0.1892 H   0  0  0  0  0  0  0  0  0  0  0  0
   -4.0982   16.0641    2.3408 H   0  0  0  0  0  0  0  0  0  0  0  0
   -2.4208   16.1806    1.8826 H   0  0  0  0  0  0  0  0  0  0  0  0
  1  2  1  0  0  0  0
  1  3  2  0  0  0  0
  2  5  2  0  0  0  0
  3  6  1  0  0  0  0
  4  5  1  0  0  0  0
  4  6  2  0  0  0  0
  5  7  1  0  0  0  0
  6  8  1  0  0  0  0
  7  9  1  0  0  0  0
  7 10  1  0  0  0  0
  7 11  1  0  0  0  0
  1 12  1  0  0  0  0
  2 13  1  0  0  0  0
  3 14  1  0  0  0  0
  4 15  1  0  0  0  0
  8 16  1  0  0  0  0
  8 17  1  0  0  0  0
M  END
> <HYBRID receptor title>
5S18(A) > WOY(A-201)

> <HYBRID receptor filename>
experiments/data/docking/5s18.oedu

> <HYBRID Chemgauss4 score>
-4.985376

> <HYBRID receptor title>
5S18(A) > WOY(A-201)

> <HYBRID receptor filename>
experiments/data/docking/5s18.oedu

> <Dock Type>
Hybrid

$$$$
MOL0174
  -OEChem-07032415493D

 18 18  0     0  0  0  0  0  0999 V2000
   -2.1183   14.9809   -0.2630 C   0  0  0  0  0  0  0  0  0  0  0  0
   -3.6744   14.2185   -1.9268 C   0  0  0  0  0  0  0  0  0  0  0  0
   -2.4179   14.5774   -1.6256 C   0  0  0  0  0  0  0  0  0  0  0  0
   -3.0521   15.0268    0.7056 C   0  0  0  0  0  0  0  0  0  0  0  0
   -4.4663   14.6377    0.3486 C   0  0  0  0  0  0  0  0  0  0  0  0
   -1.2997   14.5812   -2.6185 C   0  0  0  0  0  0  0  0  0  0  0  0
   -4.6325   14.2354   -0.9551 N   0  0  0  0  0  0  0  0  0  0  0  0
   -2.8304   15.4006    1.9977 N   0  0  0  0  0  0  0  0  0  0  0  0
   -5.3601   14.6711    1.1919 O   0  0  0  0  0  0  0  0  0  0  0  0
   -5.9058   13.7976   -1.3422 O   0  0  0  0  0  0  0  0  0  0  0  0
   -0.1441   14.9802   -2.0463 F   0  0  0  0  0  0  0  0  0  0  0  0
   -1.0996   13.3506   -3.1350 F   0  0  0  0  0  0  0  0  0  0  0  0
   -1.5631   15.4196   -3.6431 F   0  0  0  0  0  0  0  0  0  0  0  0
   -1.0905   15.2551   -0.0400 H   0  0  0  0  0  0  0  0  0  0  0  0
   -3.9773   13.8949   -2.9156 H   0  0  0  0  0  0  0  0  0  0  0  0
   -1.9076   15.6654    2.2676 H   0  0  0  0  0  0  0  0  0  0  0  0
   -3.5972   15.3983    2.6348 H   0  0  0  0  0  0  0  0  0  0  0  0
   -6.3922   13.9003   -0.5057 H   0  0  0  0  0  0  0  0  0  0  0  0
  1  3  1  0  0  0  0
  1  4  2  0  0  0  0
  2  3  2  0  0  0  0
  2  7  1  0  0  0  0
  3  6  1  0  0  0  0
  4  5  1  0  0  0  0
  4  8  1  0  0  0  0
  5  7  1  0  0  0  0
  5  9  2  0  0  0  0
  6 11  1  0  0  0  0
  6 12  1  0  0  0  0
  6 13  1  0  0  0  0
  7 10  1  0  0  0  0
  1 14  1  0  0  0  0
  2 15  1  0  0  0  0
  8 16  1  0  0  0  0
  8 17  1  0  0  0  0
 10 18  1  0  0  0  0
M  END
> <HYBRID receptor title>
5S18(A) > WOY(A-201)

> <HYBRID receptor filename>
experiments/data/docking/5s18.oedu

> <HYBRID Chemgauss4 score>
-4.968054

> <HYBRID receptor title>
5S18(A) > WOY(A-201)

> <HYBRID receptor filename>
experiments/data/docking/5s18.oedu

> <Dock Type>
Hybrid

$$$$
MOL0386
  -OEChem-07032415493D

 27 27  0     1  0  0  0  0  0999 V2000
    0.5442   14.7935   -1.0869 C   0  0  0  0  0  0  0  0  0  0  0  0
   -1.6379   14.4805   -2.0295 C   0  0  0  0  0  0  0  0  0  0  0  0
   -0.3156   14.5678   -2.2257 C   0  0  0  0  0  0  0  0  0  0  0  0
    0.0655   14.9199    0.1612 C   0  0  0  0  0  0  0  0  0  0  0  0
   -1.4247   14.8218    0.3747 C   0  0  0  0  0  0  0  0  0  0  0  0
   -4.0054   13.3011    0.2219 C   0  0  0  0  0  0  0  0  0  0  0  0
   -3.6501   14.4912   -0.6708 C   0  0  1  0  0  0  0  0  0  0  0  0
    0.3270   14.4437   -3.5712 C   0  0  0  0  0  0  0  0  0  0  0  0
   -4.2200   15.8014   -0.1436 C   0  0  0  0  0  0  0  0  0  0  0  0
   -2.1987   14.6006   -0.7717 N   0  0  0  0  0  0  0  0  0  0  0  0
    0.8267   15.1334    1.2729 N   0  0  0  0  0  0  0  0  0  0  0  0
   -1.8825   14.9364    1.5123 O   0  0  0  0  0  0  0  0  0  0  0  0
   -5.3546   13.4066    0.6568 O   0  0  0  0  0  0  0  0  0  0  0  0
    1.6675   14.5709   -3.4813 F   0  0  0  0  0  0  0  0  0  0  0  0
    0.0634   13.2441   -4.1298 F   0  0  0  0  0  0  0  0  0  0  0  0
   -0.1225   15.3979   -4.4129 F   0  0  0  0  0  0  0  0  0  0  0  0
   -5.5697   15.7490   -0.0707 F   0  0  0  0  0  0  0  0  0  0  0  0
   -3.8904   16.8455   -0.9345 F   0  0  0  0  0  0  0  0  0  0  0  0
   -3.7649   16.0699    1.1007 F   0  0  0  0  0  0  0  0  0  0  0  0
    1.6133   14.8596   -1.2702 H   0  0  0  0  0  0  0  0  0  0  0  0
   -2.3276   14.3119   -2.8499 H   0  0  0  0  0  0  0  0  0  0  0  0
   -3.9064   12.3595   -0.3290 H   0  0  0  0  0  0  0  0  0  0  0  0
   -3.3577   13.2557    1.1045 H   0  0  0  0  0  0  0  0  0  0  0  0
   -4.0650   14.3228   -1.6717 H   0  0  0  0  0  0  0  0  0  0  0  0
    1.8155   15.2035    1.1684 H   0  0  0  0  0  0  0  0  0  0  0  0
    0.3712   15.2129    2.1555 H   0  0  0  0  0  0  0  0  0  0  0  0
   -5.5295   12.6329    1.2162 H   0  0  0  0  0  0  0  0  0  0  0  0
  1  3  1  0  0  0  0
  1  4  2  0  0  0  0
  2  3  2  0  0  0  0
  2 10  1  0  0  0  0
  3  8  1  0  0  0  0
  4  5  1  0  0  0  0
  4 11  1  0  0  0  0
  5 10  1  0  0  0  0
  5 12  2  0  0  0  0
  6  7  1  0  0  0  0
  6 13  1  0  0  0  0
  7  9  1  0  0  0  0
  7 10  1  0  0  0  0
  8 14  1  0  0  0  0
  8 15  1  0  0  0  0
  8 16  1  0  0  0  0
  9 17  1  0  0  0  0
  9 18  1  0  0  0  0
  9 19  1  0  0  0  0
  1 20  1  0  0  0  0
  2 21  1  0  0  0  0
  6 22  1  0  0  0  0
  6 23  1  0  0  0  0
  7 24  1  0  0  0  0
 11 25  1  0  0  0  0
 11 26  1  0  0  0  0
 13 27  1  0  0  0  0
M  END
> <HYBRID receptor title>
5S18(A) > WOY(A-201)

> <HYBRID receptor filename>
experiments/data/docking/5s18.oedu

> <HYBRID Chemgauss4 score>
-4.915779

> <HYBRID receptor title>
5S18(A) > WOY(A-201)

> <HYBRID receptor filename>
experiments/data/docking/5s18.oedu

> <Dock Type>
Hybrid

$$$$
MOL0327
  -OEChem-07032415493D

 32 33  0     0  0  0  0  0  0999 V2000
   -1.6932   14.5041   -1.2228 C   0  0  0  0  0  0  0  0  0  0  0  0
   -0.4486   14.8709    0.8342 C   0  0  0  0  0  0  0  0  0  0  0  0
   -0.5406   14.3914   -1.8925 C   0  0  0  0  0  0  0  0  0  0  0  0
   -1.6134   14.7522    0.1896 C   0  0  0  0  0  0  0  0  0  0  0  0
    0.7911   14.5110   -1.2394 C   0  0  0  0  0  0  0  0  0  0  0  0
   -6.8890   15.5608   -0.1738 C   0  0  0  0  0  0  0  0  0  0  0  0
   -5.8139   15.9351   -1.1905 C   0  0  0  0  0  0  0  0  0  0  0  0
   -6.5344   14.2789    0.5738 C   0  0  0  0  0  0  0  0  0  0  0  0
   -4.4336   16.0295   -0.5421 C   0  0  0  0  0  0  0  0  0  0  0  0
   -5.1549   14.3692    1.2251 C   0  0  0  0  0  0  0  0  0  0  0  0
   -4.0774   14.7403    0.2032 C   0  0  0  0  0  0  0  0  0  0  0  0
    0.7321   14.7524    0.1323 N   0  0  0  0  0  0  0  0  0  0  0  0
   -0.4963   14.1551   -3.2408 N   0  0  0  0  0  0  0  0  0  0  0  0
   -2.7920   14.8624    0.8471 N   0  0  0  0  0  0  0  0  0  0  0  0
    1.8419   14.4047   -1.8657 O   0  0  0  0  0  0  0  0  0  0  0  0
   -2.6567   14.4144   -1.7126 H   0  0  0  0  0  0  0  0  0  0  0  0
   -0.3532   15.0580    1.8965 H   0  0  0  0  0  0  0  0  0  0  0  0
   -7.0115   16.3802    0.5452 H   0  0  0  0  0  0  0  0  0  0  0  0
   -7.8510   15.4362   -0.6837 H   0  0  0  0  0  0  0  0  0  0  0  0
   -5.7905   15.1840   -1.9896 H   0  0  0  0  0  0  0  0  0  0  0  0
   -6.0669   16.8931   -1.6586 H   0  0  0  0  0  0  0  0  0  0  0  0
   -7.2913   14.0776    1.3403 H   0  0  0  0  0  0  0  0  0  0  0  0
   -6.5532   13.4324   -0.1237 H   0  0  0  0  0  0  0  0  0  0  0  0
   -3.6857   16.2368   -1.3169 H   0  0  0  0  0  0  0  0  0  0  0  0
   -4.4237   16.8805    0.1516 H   0  0  0  0  0  0  0  0  0  0  0  0
   -5.1885   15.1201    2.0255 H   0  0  0  0  0  0  0  0  0  0  0  0
   -4.9152   13.4076    1.6948 H   0  0  0  0  0  0  0  0  0  0  0  0
   -4.0064   13.9187   -0.5387 H   0  0  0  0  0  0  0  0  0  0  0  0
    1.6058   14.8459    0.6419 H   0  0  0  0  0  0  0  0  0  0  0  0
   -1.3556   14.0654   -3.7329 H   0  0  0  0  0  0  0  0  0  0  0  0
    0.3930   14.0821   -3.6785 H   0  0  0  0  0  0  0  0  0  0  0  0
   -2.7761   15.0366    1.8395 H   0  0  0  0  0  0  0  0  0  0  0  0
  1  3  2  0  0  0  0
  1  4  1  0  0  0  0
  2  4  2  0  0  0  0
  2 12  1  0  0  0  0
  3  5  1  0  0  0  0
  3 13  1  0  0  0  0
  4 14  1  0  0  0  0
  5 12  1  0  0  0  0
  5 15  2  0  0  0  0
  6  7  1  0  0  0  0
  6  8  1  0  0  0  0
  7  9  1  0  0  0  0
  8 10  1  0  0  0  0
  9 11  1  0  0  0  0
 10 11  1  0  0  0  0
 11 14  1  0  0  0  0
  1 16  1  0  0  0  0
  2 17  1  0  0  0  0
  6 18  1  0  0  0  0
  6 19  1  0  0  0  0
  7 20  1  0  0  0  0
  7 21  1  0  0  0  0
  8 22  1  0  0  0  0
  8 23  1  0  0  0  0
  9 24  1  0  0  0  0
  9 25  1  0  0  0  0
 10 26  1  0  0  0  0
 10 27  1  0  0  0  0
 11 28  1  0  0  0  0
 12 29  1  0  0  0  0
 13 30  1  0  0  0  0
 13 31  1  0  0  0  0
 14 32  1  0  0  0  0
M  END
> <HYBRID receptor title>
5S18(A) > WOY(A-201)

> <HYBRID receptor filename>
experiments/data/docking/5s18.oedu

> <HYBRID Chemgauss4 score>
-4.869572

> <HYBRID receptor title>
5S18(A) > WOY(A-201)

> <HYBRID receptor filename>
experiments/data/docking/5s18.oedu

> <Dock Type>
Hybrid

$$$$
MOL0244
  -OEChem-07032415493D

 16 16  0     0  0  0  0  0  0999 V2000
   -0.6060   14.6536   -1.3497 C   0  0  0  0  0  0  0  0  0  0  0  0
   -1.9292   14.9034   -1.0033 C   0  0  0  0  0  0  0  0  0  0  0  0
   -0.0333   14.7789    0.9554 C   0  0  0  0  0  0  0  0  0  0  0  0
    0.3663   14.5885   -0.3580 C   0  0  0  0  0  0  0  0  0  0  0  0
   -2.2263   15.0797    0.3385 C   0  0  0  0  0  0  0  0  0  0  0  0
   -3.6360   15.3505    0.7462 C   0  0  0  0  0  0  0  0  0  0  0  0
   -1.3091   15.0236    1.3300 N   0  0  0  0  0  0  0  0  0  0  0  0
    1.7106   14.3380   -0.6776 N   0  0  0  0  0  0  0  0  0  0  0  0
   -4.5113   15.3952   -0.3009 F   0  0  0  0  0  0  0  0  0  0  0  0
   -3.7748   16.5450    1.3911 F   0  0  0  0  0  0  0  0  0  0  0  0
   -4.1450   14.4121    1.5979 F   0  0  0  0  0  0  0  0  0  0  0  0
   -0.3436   14.5126   -2.3947 H   0  0  0  0  0  0  0  0  0  0  0  0
   -2.6970   14.9576   -1.7678 H   0  0  0  0  0  0  0  0  0  0  0  0
    0.6798   14.7392    1.7734 H   0  0  0  0  0  0  0  0  0  0  0  0
    1.9648   14.1515   -1.6295 H   0  0  0  0  0  0  0  0  0  0  0  0
    2.3838   14.2433    0.0596 H   0  0  0  0  0  0  0  0  0  0  0  0
  1  2  2  0  0  0  0
  1  4  1  0  0  0  0
  2  5  1  0  0  0  0
  3  4  2  0  0  0  0
  3  7  1  0  0  0  0
  4  8  1  0  0  0  0
  5  6  1  0  0  0  0
  5  7  2  0  0  0  0
  6  9  1  0  0  0  0
  6 10  1  0  0  0  0
  6 11  1  0  0  0  0
  1 12  1  0  0  0  0
  2 13  1  0  0  0  0
  3 14  1  0  0  0  0
  8 15  1  0  0  0  0
  8 16  1  0  0  0  0
M  END
> <HYBRID receptor title>
5S18(A) > WOY(A-201)

> <HYBRID receptor filename>
experiments/data/docking/5s18.oedu

> <HYBRID Chemgauss4 score>
-4.806841

> <HYBRID receptor title>
5S18(A) > WOY(A-201)

> <HYBRID receptor filename>
experiments/data/docking/5s18.oedu

> <Dock Type>
Hybrid

$$$$
MOL0251
  -OEChem-07032415493D

 16 16  0     0  0  0  0  0  0999 V2000
   -2.5497   14.7367   -0.0521 C   0  0  0  0  0  0  0  0  0  0  0  0
   -4.3955   14.0217   -1.3617 C   0  0  0  0  0  0  0  0  0  0  0  0
   -3.0854   14.2712   -1.3040 C   0  0  0  0  0  0  0  0  0  0  0  0
   -3.3226   14.9183    1.0291 C   0  0  0  0  0  0  0  0  0  0  0  0
   -4.7828   14.6273    0.9290 C   0  0  0  0  0  0  0  0  0  0  0  0
   -2.1541   14.0952   -2.4589 C   0  0  0  0  0  0  0  0  0  0  0  0
   -2.8739   15.3574    2.2404 N   0  0  0  0  0  0  0  0  0  0  0  0
   -5.5297   14.7770    1.8921 O   0  0  0  0  0  0  0  0  0  0  0  0
   -5.2635   14.1872   -0.2772 O   0  0  0  0  0  0  0  0  0  0  0  0
   -0.8889   14.4211   -2.1178 F   0  0  0  0  0  0  0  0  0  0  0  0
   -2.1459   12.8166   -2.8924 F   0  0  0  0  0  0  0  0  0  0  0  0
   -2.5141   14.8784   -3.4983 F   0  0  0  0  0  0  0  0  0  0  0  0
   -1.4837   14.9416   -0.0042 H   0  0  0  0  0  0  0  0  0  0  0  0
   -4.9340   13.6698   -2.2297 H   0  0  0  0  0  0  0  0  0  0  0  0
   -1.9041   15.5621    2.3446 H   0  0  0  0  0  0  0  0  0  0  0  0
   -3.5295   15.4601    2.9836 H   0  0  0  0  0  0  0  0  0  0  0  0
  1  3  1  0  0  0  0
  1  4  2  0  0  0  0
  2  3  2  0  0  0  0
  2  9  1  0  0  0  0
  3  6  1  0  0  0  0
  4  5  1  0  0  0  0
  4  7  1  0  0  0  0
  5  8  2  0  0  0  0
  5  9  1  0  0  0  0
  6 10  1  0  0  0  0
  6 11  1  0  0  0  0
  6 12  1  0  0  0  0
  1 13  1  0  0  0  0
  2 14  1  0  0  0  0
  7 15  1  0  0  0  0
  7 16  1  0  0  0  0
M  END
> <HYBRID receptor title>
5S18(A) > WOY(A-201)

> <HYBRID receptor filename>
experiments/data/docking/5s18.oedu

> <HYBRID Chemgauss4 score>
-4.781922

> <HYBRID receptor title>
5S18(A) > WOY(A-201)

> <HYBRID receptor filename>
experiments/data/docking/5s18.oedu

> <Dock Type>
Hybrid

$$$$
MOL0364
  -OEChem-07032415493D

 24 24  0     0  0  0  0  0  0999 V2000
   -3.1628   14.8160    0.2170 C   0  0  0  0  0  0  0  0  0  0  0  0
   -1.4866   14.5122   -1.4726 C   0  0  0  0  0  0  0  0  0  0  0  0
   -2.7885   14.5868   -1.1639 C   0  0  0  0  0  0  0  0  0  0  0  0
   -2.2545   14.9567    1.1979 C   0  0  0  0  0  0  0  0  0  0  0  0
   -0.7967   14.8696    0.8311 C   0  0  0  0  0  0  0  0  0  0  0  0
   -3.8843   14.4457   -2.1719 C   0  0  0  0  0  0  0  0  0  0  0  0
   -3.8276   13.0846   -2.8617 C   0  0  0  0  0  0  0  0  0  0  0  0
   -5.2476   14.6739   -1.5258 C   0  0  0  0  0  0  0  0  0  0  0  0
   -0.5222   14.6488   -0.5087 N   0  0  0  0  0  0  0  0  0  0  0  0
   -2.5407   15.1738    2.5129 N   0  0  0  0  0  0  0  0  0  0  0  0
    0.0805   14.9903    1.6843 O   0  0  0  0  0  0  0  0  0  0  0  0
   -3.7114   15.4574   -3.1669 O   0  0  0  0  0  0  0  0  0  0  0  0
   -3.9579   12.0729   -1.9747 F   0  0  0  0  0  0  0  0  0  0  0  0
   -2.6544   12.9099   -3.5106 F   0  0  0  0  0  0  0  0  0  0  0  0
   -4.8147   12.9515   -3.7754 F   0  0  0  0  0  0  0  0  0  0  0  0
   -5.3404   15.9103   -0.9872 F   0  0  0  0  0  0  0  0  0  0  0  0
   -5.4814   13.7829   -0.5348 F   0  0  0  0  0  0  0  0  0  0  0  0
   -6.2493   14.5440   -2.4249 F   0  0  0  0  0  0  0  0  0  0  0  0
   -4.2238   14.8726    0.4447 H   0  0  0  0  0  0  0  0  0  0  0  0
   -1.1235   14.3433   -2.4788 H   0  0  0  0  0  0  0  0  0  0  0  0
    0.4508   14.5843   -0.7933 H   0  0  0  0  0  0  0  0  0  0  0  0
   -3.4965   15.2365    2.7906 H   0  0  0  0  0  0  0  0  0  0  0  0
   -1.7863   15.2633    3.1584 H   0  0  0  0  0  0  0  0  0  0  0  0
   -4.4330   15.3400   -3.8020 H   0  0  0  0  0  0  0  0  0  0  0  0
  1  3  1  0  0  0  0
  1  4  2  0  0  0  0
  2  3  2  0  0  0  0
  2  9  1  0  0  0  0
  3  6  1  0  0  0  0
  4  5  1  0  0  0  0
  4 10  1  0  0  0  0
  5  9  1  0  0  0  0
  5 11  2  0  0  0  0
  6  7  1  0  0  0  0
  6  8  1  0  0  0  0
  6 12  1  0  0  0  0
  7 13  1  0  0  0  0
  7 14  1  0  0  0  0
  7 15  1  0  0  0  0
  8 16  1  0  0  0  0
  8 17  1  0  0  0  0
  8 18  1  0  0  0  0
  1 19  1  0  0  0  0
  2 20  1  0  0  0  0
  9 21  1  0  0  0  0
 10 22  1  0  0  0  0
 10 23  1  0  0  0  0
 12 24  1  0  0  0  0
M  END
> <HYBRID receptor title>
5S18(A) > WOY(A-201)

> <HYBRID receptor filename>
experiments/data/docking/5s18.oedu

> <HYBRID Chemgauss4 score>
-4.753956

> <HYBRID receptor title>
5S18(A) > WOY(A-201)

> <HYBRID receptor filename>
experiments/data/docking/5s18.oedu

> <Dock Type>
Hybrid

$$$$
MOL0178
  -OEChem-07032415493D

 23 24  0     0  0  0  0  0  0999 V2000
   -1.6584   14.8415   -0.9060 C   0  0  0  0  0  0  0  0  0  0  0  0
   -0.3526   14.8091    1.1456 C   0  0  0  0  0  0  0  0  0  0  0  0
   -0.5475   14.5946   -1.6094 C   0  0  0  0  0  0  0  0  0  0  0  0
   -1.5258   14.9469    0.5202 C   0  0  0  0  0  0  0  0  0  0  0  0
    0.7903   14.4287   -0.9793 C   0  0  0  0  0  0  0  0  0  0  0  0
   -4.8190   14.1661    0.2527 C   0  0  0  0  0  0  0  0  0  0  0  0
   -5.2359   15.1005    1.3485 C   0  0  0  0  0  0  0  0  0  0  0  0
   -3.9599   15.3528    0.5936 C   0  0  0  0  0  0  0  0  0  0  0  0
    0.7846   14.5545    0.4090 N   0  0  0  0  0  0  0  0  0  0  0  0
   -0.5553   14.4741   -2.9736 N   0  0  0  0  0  0  0  0  0  0  0  0
   -2.6778   15.2001    1.2209 N   0  0  0  0  0  0  0  0  0  0  0  0
    1.8024   14.2014   -1.6366 O   0  0  0  0  0  0  0  0  0  0  0  0
   -2.6270   14.9600   -1.3793 H   0  0  0  0  0  0  0  0  0  0  0  0
   -0.2180   14.8829    2.2175 H   0  0  0  0  0  0  0  0  0  0  0  0
   -4.4718   13.1801    0.5359 H   0  0  0  0  0  0  0  0  0  0  0  0
   -5.3769   14.1964   -0.6752 H   0  0  0  0  0  0  0  0  0  0  0  0
   -6.0716   15.7629    1.1589 H   0  0  0  0  0  0  0  0  0  0  0  0
   -5.1697   14.7401    2.3677 H   0  0  0  0  0  0  0  0  0  0  0  0
   -3.9642   16.1773   -0.1109 H   0  0  0  0  0  0  0  0  0  0  0  0
    1.6656   14.4533    0.9044 H   0  0  0  0  0  0  0  0  0  0  0  0
   -1.4213   14.5751   -3.4515 H   0  0  0  0  0  0  0  0  0  0  0  0
    0.3048   14.2903   -3.4363 H   0  0  0  0  0  0  0  0  0  0  0  0
   -2.6050   15.2771    2.2177 H   0  0  0  0  0  0  0  0  0  0  0  0
  1  3  2  0  0  0  0
  1  4  1  0  0  0  0
  2  4  2  0  0  0  0
  2  9  1  0  0  0  0
  3  5  1  0  0  0  0
  3 10  1  0  0  0  0
  4 11  1  0  0  0  0
  5  9  1  0  0  0  0
  5 12  2  0  0  0  0
  6  7  1  0  0  0  0
  6  8  1  0  0  0  0
  7  8  1  0  0  0  0
  8 11  1  0  0  0  0
  1 13  1  0  0  0  0
  2 14  1  0  0  0  0
  6 15  1  0  0  0  0
  6 16  1  0  0  0  0
  7 17  1  0  0  0  0
  7 18  1  0  0  0  0
  8 19  1  0  0  0  0
  9 20  1  0  0  0  0
 10 21  1  0  0  0  0
 10 22  1  0  0  0  0
 11 23  1  0  0  0  0
M  END
> <HYBRID receptor title>
5S18(A) > WOY(A-201)

> <HYBRID receptor filename>
experiments/data/docking/5s18.oedu

> <HYBRID Chemgauss4 score>
-4.747839

> <HYBRID receptor title>
5S18(A) > WOY(A-201)

> <HYBRID receptor filename>
experiments/data/docking/5s18.oedu

> <Dock Type>
Hybrid

$$$$
MOL0285
  -OEChem-07032415493D

 23 23  0     0  0  0  0  0  0999 V2000
   -3.4106   14.5945   -1.1929 C   0  0  0  0  0  0  0  0  0  0  0  0
   -1.0153   14.6958   -1.2090 C   0  0  0  0  0  0  0  0  0  0  0  0
   -2.1536   14.5727   -1.9045 C   0  0  0  0  0  0  0  0  0  0  0  0
   -3.4791   14.7327    0.1409 C   0  0  0  0  0  0  0  0  0  0  0  0
   -2.1933   14.8695    0.9181 C   0  0  0  0  0  0  0  0  0  0  0  0
    0.2839   14.9662    0.8243 C   0  0  0  0  0  0  0  0  0  0  0  0
   -5.8833   15.2546    0.3477 C   0  0  0  0  0  0  0  0  0  0  0  0
   -2.1965   14.4122   -3.3915 C   0  0  0  0  0  0  0  0  0  0  0  0
   -1.0121   14.8420    0.1656 N   0  0  0  0  0  0  0  0  0  0  0  0
   -4.6342   14.7604    0.8660 N   0  0  0  0  0  0  0  0  0  0  0  0
   -2.2360   14.9961    2.1424 O   0  0  0  0  0  0  0  0  0  0  0  0
   -3.4683   14.3105   -3.8312 F   0  0  0  0  0  0  0  0  0  0  0  0
   -1.6284   15.4664   -4.0134 F   0  0  0  0  0  0  0  0  0  0  0  0
   -1.5360   13.3007   -3.7783 F   0  0  0  0  0  0  0  0  0  0  0  0
   -4.3207   14.4942   -1.7782 H   0  0  0  0  0  0  0  0  0  0  0  0
   -0.0450   14.6858   -1.6943 H   0  0  0  0  0  0  0  0  0  0  0  0
    0.5830   16.0163    0.8898 H   0  0  0  0  0  0  0  0  0  0  0  0
    0.2354   14.5514    1.8351 H   0  0  0  0  0  0  0  0  0  0  0  0
    1.0465   14.4184    0.2637 H   0  0  0  0  0  0  0  0  0  0  0  0
   -5.7632   15.5960   -0.6845 H   0  0  0  0  0  0  0  0  0  0  0  0
   -6.6404   14.4658    0.3705 H   0  0  0  0  0  0  0  0  0  0  0  0
   -6.2395   16.0913    0.9549 H   0  0  0  0  0  0  0  0  0  0  0  0
   -4.6050   14.4139    1.8101 H   0  0  0  0  0  0  0  0  0  0  0  0
  1  3  1  0  0  0  0
  1  4  2  0  0  0  0
  2  3  2  0  0  0  0
  2  9  1  0  0  0  0
  3  8  1  0  0  0  0
  4  5  1  0  0  0  0
  4 10  1  0  0  0  0
  5  9  1  0  0  0  0
  5 11  2  0  0  0  0
  6  9  1  0  0  0  0
  7 10  1  0  0  0  0
  8 12  1  0  0  0  0
  8 13  1  0  0  0  0
  8 14  1  0  0  0  0
  1 15  1  0  0  0  0
  2 16  1  0  0  0  0
  6 17  1  0  0  0  0
  6 18  1  0  0  0  0
  6 19  1  0  0  0  0
  7 20  1  0  0  0  0
  7 21  1  0  0  0  0
  7 22  1  0  0  0  0
 10 23  1  0  0  0  0
M  END
> <HYBRID receptor title>
5S18(A) > WOY(A-201)

> <HYBRID receptor filename>
experiments/data/docking/5s18.oedu

> <HYBRID Chemgauss4 score>
-4.685829

> <HYBRID receptor title>
5S18(A) > WOY(A-201)

> <HYBRID receptor filename>
experiments/data/docking/5s18.oedu

> <Dock Type>
Hybrid

$$$$
MOL0134
  -OEChem-07032415493D

 14 14  0     0  0  0  0  0  0999 V2000
   -3.5520   14.9119    0.1391 C   0  0  0  0  0  0  0  0  0  0  0  0
   -4.6973   14.4767   -1.8363 C   0  0  0  0  0  0  0  0  0  0  0  0
   -3.4578   14.6001   -1.2481 C   0  0  0  0  0  0  0  0  0  0  0  0
   -4.8607   15.0148    0.5582 C   0  0  0  0  0  0  0  0  0  0  0  0
   -2.1766   14.4252   -1.9707 C   0  0  0  0  0  0  0  0  0  0  0  0
   -5.2855   15.2977    1.8151 N   0  0  0  0  0  0  0  0  0  0  0  0
   -1.0649   14.5894   -1.1872 F   0  0  0  0  0  0  0  0  0  0  0  0
   -2.0192   15.3104   -3.0029 F   0  0  0  0  0  0  0  0  0  0  0  0
   -2.0236   13.1865   -2.5358 F   0  0  0  0  0  0  0  0  0  0  0  0
   -5.9681   14.7364   -0.7180 S   0  0  0  0  0  0  0  0  0  0  0  0
   -2.7014   15.0513    0.7956 H   0  0  0  0  0  0  0  0  0  0  0  0
   -4.9225   14.2446   -2.8681 H   0  0  0  0  0  0  0  0  0  0  0  0
   -4.6277   15.4118    2.5956 H   0  0  0  0  0  0  0  0  0  0  0  0
   -6.2828   15.3050    2.0605 H   0  0  0  0  0  0  0  0  0  0  0  0
  1  3  1  0  0  0  0
  1  4  2  0  0  0  0
  2  3  2  0  0  0  0
  2 10  1  0  0  0  0
  3  5  1  0  0  0  0
  4  6  1  0  0  0  0
  4 10  1  0  0  0  0
  5  7  1  0  0  0  0
  5  8  1  0  0  0  0
  5  9  1  0  0  0  0
  1 11  1  0  0  0  0
  2 12  1  0  0  0  0
  6 13  1  0  0  0  0
  6 14  1  0  0  0  0
M  END
> <HYBRID receptor title>
5S18(A) > WOY(A-201)

> <HYBRID receptor filename>
experiments/data/docking/5s18.oedu

> <HYBRID Chemgauss4 score>
-4.655199

> <HYBRID receptor title>
5S18(A) > WOY(A-201)

> <HYBRID receptor filename>
experiments/data/docking/5s18.oedu

> <Dock Type>
Hybrid

$$$$
MOL0415
  -OEChem-07032415493D

 18 18  0     0  0  0  0  0  0999 V2000
   -3.4481   14.9988    0.3782 C   0  0  0  0  0  0  0  0  0  0  0  0
   -4.8692   14.1888   -1.1695 C   0  0  0  0  0  0  0  0  0  0  0  0
   -3.5512   14.5268   -0.9537 C   0  0  0  0  0  0  0  0  0  0  0  0
   -4.7061   14.9352    0.9357 C   0  0  0  0  0  0  0  0  0  0  0  0
   -6.9813   14.2124    0.1509 C   0  0  0  0  0  0  0  0  0  0  0  0
   -2.4508   14.4160   -1.9301 C   0  0  0  0  0  0  0  0  0  0  0  0
   -5.5617   14.4415   -0.0140 N   0  0  0  0  0  0  0  0  0  0  0  0
   -5.1463   15.2648    2.1696 N   0  0  0  0  0  0  0  0  0  0  0  0
   -1.2291   14.8216   -1.4542 F   0  0  0  0  0  0  0  0  0  0  0  0
   -2.6533   15.1648   -3.0608 F   0  0  0  0  0  0  0  0  0  0  0  0
   -2.2335   13.1402   -2.3870 F   0  0  0  0  0  0  0  0  0  0  0  0
   -2.5537   15.3469    0.8773 H   0  0  0  0  0  0  0  0  0  0  0  0
   -5.3691   13.7915   -2.0432 H   0  0  0  0  0  0  0  0  0  0  0  0
   -7.1739   13.1987    0.5181 H   0  0  0  0  0  0  0  0  0  0  0  0
   -7.4956   14.3456   -0.8059 H   0  0  0  0  0  0  0  0  0  0  0  0
   -7.4070   14.9078    0.8818 H   0  0  0  0  0  0  0  0  0  0  0  0
   -4.5067   15.5865    2.9103 H   0  0  0  0  0  0  0  0  0  0  0  0
   -6.1220   15.1105    2.4615 H   0  0  0  0  0  0  0  0  0  0  0  0
  1  3  1  0  0  0  0
  1  4  2  0  0  0  0
  2  3  2  0  0  0  0
  2  7  1  0  0  0  0
  3  6  1  0  0  0  0
  4  7  1  0  0  0  0
  4  8  1  0  0  0  0
  5  7  1  0  0  0  0
  6  9  1  0  0  0  0
  6 10  1  0  0  0  0
  6 11  1  0  0  0  0
  1 12  1  0  0  0  0
  2 13  1  0  0  0  0
  5 14  1  0  0  0  0
  5 15  1  0  0  0  0
  5 16  1  0  0  0  0
  8 17  1  0  0  0  0
  8 18  1  0  0  0  0
M  END
> <HYBRID receptor title>
5S18(A) > WOY(A-201)

> <HYBRID receptor filename>
experiments/data/docking/5s18.oedu

> <HYBRID Chemgauss4 score>
-4.590246

> <HYBRID receptor title>
5S18(A) > WOY(A-201)

> <HYBRID receptor filename>
experiments/data/docking/5s18.oedu

> <Dock Type>
Hybrid

$$$$
MOL0376
  -OEChem-07032415493D

 14 14  0     0  0  0  0  0  0999 V2000
   -3.9499   15.1432   -0.5517 C   0  0  0  0  0  0  0  0  0  0  0  0
   -1.8327   14.7233    0.0114 C   0  0  0  0  0  0  0  0  0  0  0  0
   -2.6998   14.7130   -1.0564 C   0  0  0  0  0  0  0  0  0  0  0  0
   -3.7580   15.3858    0.7884 C   0  0  0  0  0  0  0  0  0  0  0  0
   -2.3875   14.3316   -2.4449 C   0  0  0  0  0  0  0  0  0  0  0  0
   -4.5965   15.8117    1.7553 N   0  0  0  0  0  0  0  0  0  0  0  0
   -2.4700   15.1327    1.1395 O   0  0  0  0  0  0  0  0  0  0  0  0
   -3.4506   14.4166   -3.3098 F   0  0  0  0  0  0  0  0  0  0  0  0
   -1.9411   13.0399   -2.5658 F   0  0  0  0  0  0  0  0  0  0  0  0
   -1.4095   15.0966   -3.0316 F   0  0  0  0  0  0  0  0  0  0  0  0
   -4.8757   15.2620   -1.0976 H   0  0  0  0  0  0  0  0  0  0  0  0
   -0.7863   14.4813    0.1294 H   0  0  0  0  0  0  0  0  0  0  0  0
   -5.5735   16.0757    1.5572 H   0  0  0  0  0  0  0  0  0  0  0  0
   -4.2761   15.9956    2.7180 H   0  0  0  0  0  0  0  0  0  0  0  0
  1  3  1  0  0  0  0
  1  4  2  0  0  0  0
  2  3  2  0  0  0  0
  2  7  1  0  0  0  0
  3  5  1  0  0  0  0
  4  6  1  0  0  0  0
  4  7  1  0  0  0  0
  5  8  1  0  0  0  0
  5  9  1  0  0  0  0
  5 10  1  0  0  0  0
  1 11  1  0  0  0  0
  2 12  1  0  0  0  0
  6 13  1  0  0  0  0
  6 14  1  0  0  0  0
M  END
> <HYBRID receptor title>
5S18(A) > WOY(A-201)

> <HYBRID receptor filename>
experiments/data/docking/5s18.oedu

> <HYBRID Chemgauss4 score>
-4.567419

> <HYBRID receptor title>
5S18(A) > WOY(A-201)

> <HYBRID receptor filename>
experiments/data/docking/5s18.oedu

> <Dock Type>
Hybrid

$$$$
MOL0281
  -OEChem-07032415493D

 26 27  0     0  0  0  0  0  0999 V2000
   -0.9594   14.4710   -1.8241 C   0  0  0  0  0  0  0  0  0  0  0  0
   -0.2114   14.6632    0.4822 C   0  0  0  0  0  0  0  0  0  0  0  0
    0.3111   14.5484   -2.2359 C   0  0  0  0  0  0  0  0  0  0  0  0
   -1.1987   14.5330   -0.4092 C   0  0  0  0  0  0  0  0  0  0  0  0
    1.4589   14.6928   -1.2999 C   0  0  0  0  0  0  0  0  0  0  0  0
   -5.5750   15.0081   -1.2246 C   0  0  0  0  0  0  0  0  0  0  0  0
   -4.1846   15.6654   -1.3589 C   0  0  0  0  0  0  0  0  0  0  0  0
   -4.9347   14.0338   -0.2133 C   0  0  0  0  0  0  0  0  0  0  0  0
   -3.5888   14.3098   -0.9189 C   0  0  0  0  0  0  0  0  0  0  0  0
    1.0937   14.7416    0.0445 N   0  0  0  0  0  0  0  0  0  0  0  0
    0.6566   14.5002   -3.5602 N   0  0  0  0  0  0  0  0  0  0  0  0
   -2.5087   14.4514   -0.0100 N   0  0  0  0  0  0  0  0  0  0  0  0
    2.6208   14.7619   -1.6910 O   0  0  0  0  0  0  0  0  0  0  0  0
   -1.7859   14.3657   -2.5183 H   0  0  0  0  0  0  0  0  0  0  0  0
   -0.3570   14.7133    1.5540 H   0  0  0  0  0  0  0  0  0  0  0  0
   -6.3688   15.6483   -0.8323 H   0  0  0  0  0  0  0  0  0  0  0  0
   -5.9251   14.5239   -2.1435 H   0  0  0  0  0  0  0  0  0  0  0  0
   -3.9180   15.9959   -2.3664 H   0  0  0  0  0  0  0  0  0  0  0  0
   -4.0245   16.4945   -0.6589 H   0  0  0  0  0  0  0  0  0  0  0  0
   -4.9966   14.3804    0.8255 H   0  0  0  0  0  0  0  0  0  0  0  0
   -5.2941   13.0026   -0.2645 H   0  0  0  0  0  0  0  0  0  0  0  0
   -3.3648   13.6256   -1.7466 H   0  0  0  0  0  0  0  0  0  0  0  0
    1.8284   14.8403    0.7389 H   0  0  0  0  0  0  0  0  0  0  0  0
   -0.0682   14.4041   -4.2340 H   0  0  0  0  0  0  0  0  0  0  0  0
    1.6191   14.5630   -3.7997 H   0  0  0  0  0  0  0  0  0  0  0  0
   -2.6954   14.4929    0.9740 H   0  0  0  0  0  0  0  0  0  0  0  0
  1  3  2  0  0  0  0
  1  4  1  0  0  0  0
  2  4  2  0  0  0  0
  2 10  1  0  0  0  0
  3  5  1  0  0  0  0
  3 11  1  0  0  0  0
  4 12  1  0  0  0  0
  5 10  1  0  0  0  0
  5 13  2  0  0  0  0
  6  7  1  0  0  0  0
  6  8  1  0  0  0  0
  7  9  1  0  0  0  0
  8  9  1  0  0  0  0
  9 12  1  0  0  0  0
  1 14  1  0  0  0  0
  2 15  1  0  0  0  0
  6 16  1  0  0  0  0
  6 17  1  0  0  0  0
  7 18  1  0  0  0  0
  7 19  1  0  0  0  0
  8 20  1  0  0  0  0
  8 21  1  0  0  0  0
  9 22  1  0  0  0  0
 10 23  1  0  0  0  0
 11 24  1  0  0  0  0
 11 25  1  0  0  0  0
 12 26  1  0  0  0  0
M  END
> <HYBRID receptor title>
5S18(A) > WOY(A-201)

> <HYBRID receptor filename>
experiments/data/docking/5s18.oedu

> <HYBRID Chemgauss4 score>
-4.544765

> <HYBRID receptor title>
5S18(A) > WOY(A-201)

> <HYBRID receptor filename>
experiments/data/docking/5s18.oedu

> <Dock Type>
Hybrid

$$$$
MOL0169
  -OEChem-07032415493D

 16 16  0     0  0  0  0  0  0999 V2000
   -4.1139   15.5933    0.1190 C   0  0  0  0  0  0  0  0  0  0  0  0
   -1.9201   15.0479   -0.7025 C   0  0  0  0  0  0  0  0  0  0  0  0
   -3.5636   15.6549    1.3896 C   0  0  0  0  0  0  0  0  0  0  0  0
   -3.2694   15.2834   -0.9412 C   0  0  0  0  0  0  0  0  0  0  0  0
   -1.4678   15.1340    0.6043 C   0  0  0  0  0  0  0  0  0  0  0  0
   -0.0252   14.8880    0.8973 C   0  0  0  0  0  0  0  0  0  0  0  0
   -2.2578   15.4324    1.6600 N   0  0  0  0  0  0  0  0  0  0  0  0
   -3.7794   15.2087   -2.2532 N   0  0  0  0  0  0  0  0  0  0  0  0
    0.7169   14.5925   -0.2100 F   0  0  0  0  0  0  0  0  0  0  0  0
    0.1645   13.8439    1.7551 F   0  0  0  0  0  0  0  0  0  0  0  0
    0.6016   15.9556    1.4737 F   0  0  0  0  0  0  0  0  0  0  0  0
   -5.1712   15.7822   -0.0329 H   0  0  0  0  0  0  0  0  0  0  0  0
   -1.2422   14.8046   -1.5145 H   0  0  0  0  0  0  0  0  0  0  0  0
   -4.1792   15.8925    2.2509 H   0  0  0  0  0  0  0  0  0  0  0  0
   -4.7611   15.3286   -2.4026 H   0  0  0  0  0  0  0  0  0  0  0  0
   -3.1718   14.9331   -2.9983 H   0  0  0  0  0  0  0  0  0  0  0  0
  1  3  2  0  0  0  0
  1  4  1  0  0  0  0
  2  4  2  0  0  0  0
  2  5  1  0  0  0  0
  3  7  1  0  0  0  0
  4  8  1  0  0  0  0
  5  6  1  0  0  0  0
  5  7  2  0  0  0  0
  6  9  1  0  0  0  0
  6 10  1  0  0  0  0
  6 11  1  0  0  0  0
  1 12  1  0  0  0  0
  2 13  1  0  0  0  0
  3 14  1  0  0  0  0
  8 15  1  0  0  0  0
  8 16  1  0  0  0  0
M  END
> <HYBRID receptor title>
5S18(A) > WOY(A-201)

> <HYBRID receptor filename>
experiments/data/docking/5s18.oedu

> <HYBRID Chemgauss4 score>
-4.486526

> <HYBRID receptor title>
5S18(A) > WOY(A-201)

> <HYBRID receptor filename>
experiments/data/docking/5s18.oedu

> <Dock Type>
Hybrid

$$$$
MOL0235
  -OEChem-07032415493D

 16 16  0     0  0  0  0  0  0999 V2000
    0.0722   14.7753    0.7794 C   0  0  0  0  0  0  0  0  0  0  0  0
   -1.0858   15.0360    1.5035 C   0  0  0  0  0  0  0  0  0  0  0  0
   -0.0491   14.5705   -0.5860 C   0  0  0  0  0  0  0  0  0  0  0  0
   -2.3121   15.0833    0.8501 C   0  0  0  0  0  0  0  0  0  0  0  0
   -2.3270   14.8648   -0.5181 C   0  0  0  0  0  0  0  0  0  0  0  0
   -3.6143   14.9043   -1.2761 C   0  0  0  0  0  0  0  0  0  0  0  0
   -1.2232   14.6088   -1.2552 N   0  0  0  0  0  0  0  0  0  0  0  0
   -3.4889   15.3469    1.5739 N   0  0  0  0  0  0  0  0  0  0  0  0
   -4.7014   15.1667   -0.4942 F   0  0  0  0  0  0  0  0  0  0  0  0
   -3.8875   13.7242   -1.9027 F   0  0  0  0  0  0  0  0  0  0  0  0
   -3.6372   15.8556   -2.2545 F   0  0  0  0  0  0  0  0  0  0  0  0
    1.0386   14.7339    1.2686 H   0  0  0  0  0  0  0  0  0  0  0  0
   -1.0210   15.2019    2.5755 H   0  0  0  0  0  0  0  0  0  0  0  0
    0.8245   14.3647   -1.1956 H   0  0  0  0  0  0  0  0  0  0  0  0
   -3.4411   15.4472    2.5694 H   0  0  0  0  0  0  0  0  0  0  0  0
   -4.3717   15.3259    1.1009 H   0  0  0  0  0  0  0  0  0  0  0  0
  1  2  2  0  0  0  0
  1  3  1  0  0  0  0
  2  4  1  0  0  0  0
  3  7  2  0  0  0  0
  4  5  2  0  0  0  0
  4  8  1  0  0  0  0
  5  6  1  0  0  0  0
  5  7  1  0  0  0  0
  6  9  1  0  0  0  0
  6 10  1  0  0  0  0
  6 11  1  0  0  0  0
  1 12  1  0  0  0  0
  2 13  1  0  0  0  0
  3 14  1  0  0  0  0
  8 15  1  0  0  0  0
  8 16  1  0  0  0  0
M  END
> <HYBRID receptor title>
5S18(A) > WOY(A-201)

> <HYBRID receptor filename>
experiments/data/docking/5s18.oedu

> <HYBRID Chemgauss4 score>
-4.474221

> <HYBRID receptor title>
5S18(A) > WOY(A-201)

> <HYBRID receptor filename>
experiments/data/docking/5s18.oedu

> <Dock Type>
Hybrid

$$$$
MOL0286
  -OEChem-07032415493D

 33 34  0     0  0  0  0  0  0999 V2000
   -2.1186   14.4028   -0.4848 C   0  0  0  0  0  0  0  0  0  0  0  0
   -3.9979   14.5349   -1.9706 C   0  0  0  0  0  0  0  0  0  0  0  0
   -2.7025   14.2370   -1.8006 C   0  0  0  0  0  0  0  0  0  0  0  0
   -2.8268   14.8430    0.5695 C   0  0  0  0  0  0  0  0  0  0  0  0
   -4.2808   15.1726    0.3583 C   0  0  0  0  0  0  0  0  0  0  0  0
   -2.9315   11.1455   -3.8729 C   0  0  0  0  0  0  0  0  0  0  0  0
   -3.6099   12.4672   -4.2155 C   0  0  0  0  0  0  0  0  0  0  0  0
   -2.1810   11.2288   -2.5485 C   0  0  0  0  0  0  0  0  0  0  0  0
   -2.6157   13.6286   -4.2196 C   0  0  0  0  0  0  0  0  0  0  0  0
   -1.1756   12.3812   -2.5396 C   0  0  0  0  0  0  0  0  0  0  0  0
   -1.8097   13.7342   -2.9125 C   0  0  0  0  0  0  0  0  0  0  0  0
   -0.6835   14.7692   -3.1014 C   0  0  0  0  0  0  0  0  0  0  0  0
   -4.7624   14.9874   -0.9274 N   0  0  0  0  0  0  0  0  0  0  0  0
   -2.3381   15.0201    1.8296 N   0  0  0  0  0  0  0  0  0  0  0  0
   -4.9802   15.5795    1.2842 O   0  0  0  0  0  0  0  0  0  0  0  0
    0.0078   14.8887   -1.9634 F   0  0  0  0  0  0  0  0  0  0  0  0
   -1.2150   15.9520   -3.4262 F   0  0  0  0  0  0  0  0  0  0  0  0
    0.1342   14.3647   -4.0785 F   0  0  0  0  0  0  0  0  0  0  0  0
   -1.0667   14.1557   -0.3697 H   0  0  0  0  0  0  0  0  0  0  0  0
   -4.5096   14.4390   -2.9203 H   0  0  0  0  0  0  0  0  0  0  0  0
   -3.6813   10.3479   -3.8229 H   0  0  0  0  0  0  0  0  0  0  0  0
   -2.2315   10.8756   -4.6733 H   0  0  0  0  0  0  0  0  0  0  0  0
   -4.0832   12.3896   -5.2011 H   0  0  0  0  0  0  0  0  0  0  0  0
   -4.4139   12.6652   -3.4965 H   0  0  0  0  0  0  0  0  0  0  0  0
   -2.8961   11.3389   -1.7254 H   0  0  0  0  0  0  0  0  0  0  0  0
   -1.6504   10.2857   -2.3727 H   0  0  0  0  0  0  0  0  0  0  0  0
   -1.9262   13.4835   -5.0625 H   0  0  0  0  0  0  0  0  0  0  0  0
   -3.1551   14.5631   -4.4226 H   0  0  0  0  0  0  0  0  0  0  0  0
   -0.6991   12.4343   -1.5521 H   0  0  0  0  0  0  0  0  0  0  0  0
   -0.3767   12.1423   -3.2548 H   0  0  0  0  0  0  0  0  0  0  0  0
   -5.7394   15.1996   -1.1073 H   0  0  0  0  0  0  0  0  0  0  0  0
   -1.3787   14.8116    2.0045 H   0  0  0  0  0  0  0  0  0  0  0  0
   -2.9540   15.3529    2.5394 H   0  0  0  0  0  0  0  0  0  0  0  0
  1  3  1  0  0  0  0
  1  4  2  0  0  0  0
  2  3  2  0  0  0  0
  2 13  1  0  0  0  0
  3 11  1  0  0  0  0
  4  5  1  0  0  0  0
  4 14  1  0  0  0  0
  5 13  1  0  0  0  0
  5 15  2  0  0  0  0
  6  7  1  0  0  0  0
  6  8  1  0  0  0  0
  7  9  1  0  0  0  0
  8 10  1  0  0  0  0
  9 11  1  0  0  0  0
 10 11  1  0  0  0  0
 11 12  1  0  0  0  0
 12 16  1  0  0  0  0
 12 17  1  0  0  0  0
 12 18  1  0  0  0  0
  1 19  1  0  0  0  0
  2 20  1  0  0  0  0
  6 21  1  0  0  0  0
  6 22  1  0  0  0  0
  7 23  1  0  0  0  0
  7 24  1  0  0  0  0
  8 25  1  0  0  0  0
  8 26  1  0  0  0  0
  9 27  1  0  0  0  0
  9 28  1  0  0  0  0
 10 29  1  0  0  0  0
 10 30  1  0  0  0  0
 13 31  1  0  0  0  0
 14 32  1  0  0  0  0
 14 33  1  0  0  0  0
M  END
> <HYBRID receptor title>
5S18(A) > WOY(A-201)

> <HYBRID receptor filename>
experiments/data/docking/5s18.oedu

> <HYBRID Chemgauss4 score>
-4.458074

> <HYBRID receptor title>
5S18(A) > WOY(A-201)

> <HYBRID receptor filename>
experiments/data/docking/5s18.oedu

> <Dock Type>
Hybrid

$$$$
MOL0197
  -OEChem-07032415493D

 24 25  0     0  0  0  0  0  0999 V2000
   -1.7672   14.8006   -0.5463 C   0  0  0  0  0  0  0  0  0  0  0  0
   -0.0182   14.9861    0.7825 C   0  0  0  0  0  0  0  0  0  0  0  0
   -2.1435   14.8657    0.7751 C   0  0  0  0  0  0  0  0  0  0  0  0
   -5.2907   13.9012   -0.2014 C   0  0  0  0  0  0  0  0  0  0  0  0
   -4.8364   16.2570   -0.2256 C   0  0  0  0  0  0  0  0  0  0  0  0
   -4.5590   15.0514    0.2897 C   0  0  0  0  0  0  0  0  0  0  0  0
   -6.2352   13.9982   -1.1530 C   0  0  0  0  0  0  0  0  0  0  0  0
   -6.5326   15.3613   -1.7194 C   0  0  0  0  0  0  0  0  0  0  0  0
   -3.5295   14.8252    1.3506 C   0  0  0  0  0  0  0  0  0  0  0  0
   -1.0507   14.9812    1.5967 N   0  0  0  0  0  0  0  0  0  0  0  0
   -0.4030   14.8788   -0.5253 N   0  0  0  0  0  0  0  0  0  0  0  0
   -5.7906   16.4083   -1.1973 N   0  0  0  0  0  0  0  0  0  0  0  0
   -6.9573   12.9576   -1.6568 N   0  0  0  0  0  0  0  0  0  0  0  0
   -7.3856   15.5136   -2.5918 O   0  0  0  0  0  0  0  0  0  0  0  0
   -2.3225   14.7089   -1.4685 H   0  0  0  0  0  0  0  0  0  0  0  0
    1.0203   15.0635    1.0713 H   0  0  0  0  0  0  0  0  0  0  0  0
   -5.0499   12.9336    0.2306 H   0  0  0  0  0  0  0  0  0  0  0  0
   -4.3360   17.1655    0.0860 H   0  0  0  0  0  0  0  0  0  0  0  0
   -3.6508   15.5947    2.1179 H   0  0  0  0  0  0  0  0  0  0  0  0
   -3.7242   13.8561    1.8187 H   0  0  0  0  0  0  0  0  0  0  0  0
    0.2101   14.8606   -1.3293 H   0  0  0  0  0  0  0  0  0  0  0  0
   -5.9641   17.3428   -1.5557 H   0  0  0  0  0  0  0  0  0  0  0  0
   -6.7859   12.0408   -1.3036 H   0  0  0  0  0  0  0  0  0  0  0  0
   -7.6355   13.1434   -2.3634 H   0  0  0  0  0  0  0  0  0  0  0  0
  1  3  2  0  0  0  0
  1 11  1  0  0  0  0
  2 10  2  0  0  0  0
  2 11  1  0  0  0  0
  3  9  1  0  0  0  0
  3 10  1  0  0  0  0
  4  6  1  0  0  0  0
  4  7  2  0  0  0  0
  5  6  2  0  0  0  0
  5 12  1  0  0  0  0
  6  9  1  0  0  0  0
  7  8  1  0  0  0  0
  7 13  1  0  0  0  0
  8 12  1  0  0  0  0
  8 14  2  0  0  0  0
  1 15  1  0  0  0  0
  2 16  1  0  0  0  0
  4 17  1  0  0  0  0
  5 18  1  0  0  0  0
  9 19  1  0  0  0  0
  9 20  1  0  0  0  0
 11 21  1  0  0  0  0
 12 22  1  0  0  0  0
 13 23  1  0  0  0  0
 13 24  1  0  0  0  0
M  END
> <HYBRID receptor title>
5S18(A) > WOY(A-201)

> <HYBRID receptor filename>
experiments/data/docking/5s18.oedu

> <HYBRID Chemgauss4 score>
-4.438142

> <HYBRID receptor title>
5S18(A) > WOY(A-201)

> <HYBRID receptor filename>
experiments/data/docking/5s18.oedu

> <Dock Type>
Hybrid

$$$$
